MODEL 1
REMARK VINA RESULT:      -8.1      0.000      0.000
REMARK  7 active torsions:
REMARK  status: ('A' for Active; 'I' for Inactive)
REMARK    1  A    between atoms: C_2  and  C_3 
REMARK    2  A    between atoms: C_8  and  O_31 
REMARK    3  A    between atoms: C_14  and  O_18 
REMARK    4  A    between atoms: C_22  and  C_23 
REMARK    5  A    between atoms: C_23  and  C_27 
REMARK    6  A    between atoms: C_24  and  O_25 
REMARK    7  A    between atoms: C_27  and  O_29 
ROOT
HETATM    1  C   UNL     1       1.836  18.566 -62.548  1.00  0.00     0.022 C 
HETATM    2  C   UNL     1       0.927  17.294 -62.481  1.00  0.00     0.278 C 
HETATM    3  N   UNL     1       0.093  17.146 -61.280  1.00  0.00     0.099 N 
HETATM    4  C   UNL     1      -0.351  15.722 -61.054  1.00  0.00     0.277 C 
HETATM    5  C   UNL     1      -0.996  15.370 -59.639  1.00  0.00     0.080 C 
HETATM    6  C   UNL     1      -0.291  16.085 -58.428  1.00  0.00     0.132 C 
HETATM    7  C   UNL     1      -0.260  17.469 -59.021  1.00  0.00     0.060 C 
HETATM    8  N   UNL     1      -1.335  18.182 -58.751  1.00  0.00    -0.358 N 
ATOM      9  HN  UNL     1      -1.658  19.032 -59.215  1.00  0.00     0.165 HD
HETATM   10  C   UNL     1      -1.943  17.489 -57.658  1.00  0.00     0.044 C 
HETATM   11  C   UNL     1      -1.092  16.483 -57.226  1.00  0.00     0.042 C 
HETATM   12  C   UNL     1      -0.702  16.689 -55.916  1.00  0.00     0.080 C 
HETATM   13  C   UNL     1      -1.632  17.145 -54.981  1.00  0.00     0.037 C 
HETATM   14  C   UNL     1      -2.822  17.704 -55.450  1.00  0.00     0.005 C 
HETATM   15  C   UNL     1      -2.924  17.993 -56.815  1.00  0.00     0.030 C 
HETATM   16  C   UNL     1       0.786  17.580 -60.069  1.00  0.00     0.272 C 
HETATM   17  C   UNL     1       1.626  18.832 -60.034  1.00  0.00     0.052 C 
HETATM   18  C   UNL     1       2.607  18.731 -61.208  1.00  0.00     0.035 C 
ENDROOT
BRANCH  18  19
HETATM   19  C   UNL     1       3.763  19.709 -61.198  1.00  0.00     0.043 C 
HETATM   20  C   UNL     1       3.756  21.052 -61.381  1.00  0.00     0.147 C 
BRANCH  20  21
HETATM   21  O   UNL     1       2.800  21.995 -61.610  1.00  0.00    -0.367 OA
HETATM   22  C   UNL     1       2.903  22.958 -62.641  1.00  0.00     0.208 C 
ENDBRANCH  20  21
BRANCH  19  23
HETATM   23  C   UNL     1       5.132  19.135 -61.052  1.00  0.00     0.291 C 
HETATM   24  O   UNL     1       6.018  19.264 -61.878  1.00  0.00    -0.260 OA
BRANCH  23  25
HETATM   25  O   UNL     1       5.218  18.424 -59.897  1.00  0.00    -0.323 OA
HETATM   26  C   UNL     1       5.471  19.199 -58.725  1.00  0.00     0.213 C 
ENDBRANCH  23  25
ENDBRANCH  19  23
ENDBRANCH  18  19
BRANCH   1  27
HETATM   27  C   UNL     1       1.136  19.826 -63.105  1.00  0.00     0.002 C 
HETATM   28  C   UNL     1      -0.076  19.668 -64.008  1.00  0.00     0.005 C 
ENDBRANCH   1  27
BRANCH   6  29
HETATM   29  O   UNL     1       0.894  15.393 -58.130  1.00  0.00    -0.379 OA
HETATM   30  H   UNL     1       1.306  15.842 -57.370  1.00  0.00     0.211 HD
ENDBRANCH   6  29
BRANCH  12  31
HETATM   31  O   UNL     1       0.632  16.956 -55.650  1.00  0.00    -0.355 OA
HETATM   32  C   UNL     1       0.856  16.925 -54.211  1.00  0.00     0.210 C 
ENDBRANCH  12  31
TORSDOF 7
ENDMDL
MODEL 2
REMARK VINA RESULT:      -6.6     16.948     19.554
REMARK  7 active torsions:
REMARK  status: ('A' for Active; 'I' for Inactive)
REMARK    1  A    between atoms: C_2  and  C_3 
REMARK    2  A    between atoms: C_8  and  O_31 
REMARK    3  A    between atoms: C_14  and  O_18 
REMARK    4  A    between atoms: C_22  and  C_23 
REMARK    5  A    between atoms: C_23  and  C_27 
REMARK    6  A    between atoms: C_24  and  O_25 
REMARK    7  A    between atoms: C_27  and  O_29 
ROOT
HETATM    1  C   UNL     1      11.616   3.971 -61.506  1.00  0.00     0.022 C 
HETATM    2  C   UNL     1      12.680   4.717 -62.377  1.00  0.00     0.278 C 
HETATM    3  N   UNL     1      14.011   4.893 -61.779  1.00  0.00     0.099 N 
HETATM    4  C   UNL     1      14.795   6.009 -62.425  1.00  0.00     0.277 C 
HETATM    5  C   UNL     1      16.115   6.505 -61.682  1.00  0.00     0.080 C 
HETATM    6  C   UNL     1      15.975   6.563 -60.116  1.00  0.00     0.132 C 
HETATM    7  C   UNL     1      15.365   5.198 -59.933  1.00  0.00     0.060 C 
HETATM    8  N   UNL     1      16.255   4.241 -59.767  1.00  0.00    -0.358 N 
ATOM      9  HN  UNL     1      16.119   3.233 -59.858  1.00  0.00     0.165 HD
HETATM   10  C   UNL     1      17.456   4.941 -59.430  1.00  0.00     0.044 C 
HETATM   11  C   UNL     1      17.164   6.284 -59.248  1.00  0.00     0.042 C 
HETATM   12  C   UNL     1      17.444   6.684 -57.955  1.00  0.00     0.080 C 
HETATM   13  C   UNL     1      18.597   6.218 -57.322  1.00  0.00     0.037 C 
HETATM   14  C   UNL     1      19.249   5.110 -57.866  1.00  0.00     0.005 C 
HETATM   15  C   UNL     1      18.596   4.384 -58.867  1.00  0.00     0.030 C 
HETATM   16  C   UNL     1      13.940   5.188 -60.349  1.00  0.00     0.272 C 
HETATM   17  C   UNL     1      12.988   4.463 -59.430  1.00  0.00     0.052 C 
HETATM   18  C   UNL     1      11.599   4.568 -60.071  1.00  0.00     0.035 C 
ENDROOT
BRANCH  18  19
HETATM   19  C   UNL     1      10.427   4.196 -59.188  1.00  0.00     0.043 C 
HETATM   20  C   UNL     1      10.207   3.062 -58.481  1.00  0.00     0.147 C 
BRANCH  20  21
HETATM   21  O   UNL     1      10.889   1.901 -58.273  1.00  0.00    -0.367 OA
HETATM   22  C   UNL     1      10.363   0.631 -58.609  1.00  0.00     0.208 C 
ENDBRANCH  20  21
BRANCH  19  23
HETATM   23  C   UNL     1       9.291   5.163 -59.132  1.00  0.00     0.291 C 
HETATM   24  O   UNL     1       8.852   5.755 -60.100  1.00  0.00    -0.260 OA
BRANCH  23  25
HETATM   25  O   UNL     1       8.864   5.305 -57.850  1.00  0.00    -0.323 OA
HETATM   26  C   UNL     1       9.250   6.523 -57.213  1.00  0.00     0.213 C 
ENDBRANCH  23  25
ENDBRANCH  19  23
ENDBRANCH  18  19
BRANCH   1  27
HETATM   27  C   UNL     1      11.665   2.429 -61.616  1.00  0.00     0.002 C 
HETATM   28  C   UNL     1      12.739   1.776 -62.468  1.00  0.00     0.005 C 
ENDBRANCH   1  27
BRANCH   6  29
HETATM   29  O   UNL     1      15.270   7.728 -59.774  1.00  0.00    -0.379 OA
HETATM   30  H   UNL     1      15.365   8.352 -60.516  1.00  0.00     0.211 HD
ENDBRANCH   6  29
BRANCH  12  31
HETATM   31  O   UNL     1      16.398   7.077 -57.135  1.00  0.00    -0.355 OA
HETATM   32  C   UNL     1      16.795   6.937 -55.741  1.00  0.00     0.210 C 
ENDBRANCH  12  31
TORSDOF 7
ENDMDL
MODEL 3
REMARK VINA RESULT:      -6.6     17.758     19.226
REMARK  7 active torsions:
REMARK  status: ('A' for Active; 'I' for Inactive)
REMARK    1  A    between atoms: C_2  and  C_3 
REMARK    2  A    between atoms: C_8  and  O_31 
REMARK    3  A    between atoms: C_14  and  O_18 
REMARK    4  A    between atoms: C_22  and  C_23 
REMARK    5  A    between atoms: C_23  and  C_27 
REMARK    6  A    between atoms: C_24  and  O_25 
REMARK    7  A    between atoms: C_27  and  O_29 
ROOT
HETATM    1  C   UNL     1      13.445   2.275 -62.046  1.00  0.00     0.022 C 
HETATM    2  C   UNL     1      12.516   3.446 -62.509  1.00  0.00     0.278 C 
HETATM    3  N   UNL     1      11.538   3.935 -61.528  1.00  0.00     0.099 N 
HETATM    4  C   UNL     1      10.392   4.676 -62.171  1.00  0.00     0.277 C 
HETATM    5  C   UNL     1       9.118   4.989 -61.264  1.00  0.00     0.080 C 
HETATM    6  C   UNL     1       8.735   3.818 -60.287  1.00  0.00     0.132 C 
HETATM    7  C   UNL     1      10.118   3.567 -59.744  1.00  0.00     0.060 C 
HETATM    8  N   UNL     1      10.406   4.291 -58.682  1.00  0.00    -0.358 N 
ATOM      9  HN  UNL     1      11.325   4.480 -58.280  1.00  0.00     0.165 HD
HETATM   10  C   UNL     1       9.132   4.751 -58.222  1.00  0.00     0.044 C 
HETATM   11  C   UNL     1       8.132   4.125 -58.950  1.00  0.00     0.042 C 
HETATM   12  C   UNL     1       7.325   3.357 -58.132  1.00  0.00     0.080 C 
HETATM   13  C   UNL     1       6.954   3.841 -56.877  1.00  0.00     0.037 C 
HETATM   14  C   UNL     1       7.672   4.911 -56.341  1.00  0.00     0.005 C 
HETATM   15  C   UNL     1       8.861   5.292 -56.973  1.00  0.00     0.030 C 
HETATM   16  C   UNL     1      10.961   2.852 -60.735  1.00  0.00     0.272 C 
HETATM   17  C   UNL     1      11.801   1.722 -60.194  1.00  0.00     0.052 C 
HETATM   18  C   UNL     1      12.590   1.158 -61.382  1.00  0.00     0.035 C 
ENDROOT
BRANCH  18  19
HETATM   19  C   UNL     1      13.263  -0.180 -61.161  1.00  0.00     0.043 C 
HETATM   20  C   UNL     1      13.933  -0.962 -62.041  1.00  0.00     0.147 C 
BRANCH  20  21
HETATM   21  O   UNL     1      14.266  -0.874 -63.359  1.00  0.00    -0.367 OA
HETATM   22  C   UNL     1      15.492  -0.326 -63.806  1.00  0.00     0.208 C 
ENDBRANCH  20  21
BRANCH  19  23
HETATM   23  C   UNL     1      13.114  -0.796 -59.810  1.00  0.00     0.291 C 
HETATM   24  O   UNL     1      12.184  -1.511 -59.485  1.00  0.00    -0.260 OA
BRANCH  23  25
HETATM   25  O   UNL     1      14.136  -0.405 -59.005  1.00  0.00    -0.323 OA
HETATM   26  C   UNL     1      13.792  -0.222 -57.632  1.00  0.00     0.213 C 
ENDBRANCH  23  25
ENDBRANCH  19  23
ENDBRANCH  18  19
BRANCH   1  27
HETATM   27  C   UNL     1      14.712   2.724 -61.283  1.00  0.00     0.002 C 
HETATM   28  C   UNL     1      15.118   4.188 -61.308  1.00  0.00     0.005 C 
ENDBRANCH   1  27
BRANCH   6  29
HETATM   29  O   UNL     1       8.051   2.833 -61.018  1.00  0.00    -0.379 OA
HETATM   30  H   UNL     1       8.719   2.312 -61.498  1.00  0.00     0.211 HD
ENDBRANCH   6  29
BRANCH  12  31
HETATM   31  O   UNL     1       7.323   1.981 -58.296  1.00  0.00    -0.355 OA
HETATM   32  C   UNL     1       8.175   1.370 -57.286  1.00  0.00     0.210 C 
ENDBRANCH  12  31
TORSDOF 7
ENDMDL
MODEL 4
REMARK VINA RESULT:      -6.5      3.570      7.780
REMARK  7 active torsions:
REMARK  status: ('A' for Active; 'I' for Inactive)
REMARK    1  A    between atoms: C_2  and  C_3 
REMARK    2  A    between atoms: C_8  and  O_31 
REMARK    3  A    between atoms: C_14  and  O_18 
REMARK    4  A    between atoms: C_22  and  C_23 
REMARK    5  A    between atoms: C_23  and  C_27 
REMARK    6  A    between atoms: C_24  and  O_25 
REMARK    7  A    between atoms: C_27  and  O_29 
ROOT
HETATM    1  C   UNL     1       0.261  11.403 -60.793  1.00  0.00     0.022 C 
HETATM    2  C   UNL     1       0.474  12.182 -62.133  1.00  0.00     0.278 C 
HETATM    3  N   UNL     1       0.942  13.571 -62.018  1.00  0.00     0.099 N 
HETATM    4  C   UNL     1       0.652  14.384 -63.255  1.00  0.00     0.277 C 
HETATM    5  C   UNL     1       0.826  15.966 -63.151  1.00  0.00     0.080 C 
HETATM    6  C   UNL     1       0.331  16.567 -61.785  1.00  0.00     0.132 C 
HETATM    7  C   UNL     1       1.025  15.580 -60.883  1.00  0.00     0.060 C 
HETATM    8  N   UNL     1       2.245  15.944 -60.543  1.00  0.00    -0.358 N 
ATOM      9  HN  UNL     1       2.988  15.364 -60.151  1.00  0.00     0.165 HD
HETATM   10  C   UNL     1       2.286  17.341 -60.851  1.00  0.00     0.044 C 
HETATM   11  C   UNL     1       1.015  17.767 -61.204  1.00  0.00     0.042 C 
HETATM   12  C   UNL     1       0.550  18.727 -60.325  1.00  0.00     0.080 C 
HETATM   13  C   UNL     1       1.417  19.716 -59.858  1.00  0.00     0.037 C 
HETATM   14  C   UNL     1       2.790  19.516 -60.009  1.00  0.00     0.005 C 
HETATM   15  C   UNL     1       3.235  18.248 -60.401  1.00  0.00     0.030 C 
HETATM   16  C   UNL     1       0.330  14.268 -60.889  1.00  0.00     0.272 C 
HETATM   17  C   UNL     1       0.151  13.609 -59.544  1.00  0.00     0.052 C 
HETATM   18  C   UNL     1      -0.562  12.277 -59.804  1.00  0.00     0.035 C 
ENDROOT
BRANCH  18  19
HETATM   19  C   UNL     1      -1.136  11.579 -58.589  1.00  0.00     0.043 C 
HETATM   20  C   UNL     1      -1.727  10.364 -58.492  1.00  0.00     0.147 C 
BRANCH  20  21
HETATM   21  O   UNL     1      -2.008   9.351 -59.358  1.00  0.00    -0.367 OA
HETATM   22  C   UNL     1      -3.227   8.634 -59.331  1.00  0.00     0.208 C 
ENDBRANCH  20  21
BRANCH  19  23
HETATM   23  C   UNL     1      -1.145  12.349 -57.310  1.00  0.00     0.291 C 
HETATM   24  O   UNL     1      -0.226  12.355 -56.511  1.00  0.00    -0.260 OA
BRANCH  23  25
HETATM   25  O   UNL     1      -2.332  12.993 -57.162  1.00  0.00    -0.323 OA
HETATM   26  C   UNL     1      -2.236  14.358 -56.759  1.00  0.00     0.213 C 
ENDBRANCH  23  25
ENDBRANCH  19  23
ENDBRANCH  18  19
BRANCH   1  27
HETATM   27  C   UNL     1       1.535  10.732 -60.231  1.00  0.00     0.002 C 
HETATM   28  C   UNL     1       2.632  10.298 -61.187  1.00  0.00     0.005 C 
ENDBRANCH   1  27
BRANCH   6  29
HETATM   29  O   UNL     1      -1.070  16.661 -61.820  1.00  0.00    -0.379 OA
HETATM   30  H   UNL     1      -1.343  16.554 -62.749  1.00  0.00     0.211 HD
ENDBRANCH   6  29
BRANCH  12  31
HETATM   31  O   UNL     1      -0.545  18.430 -59.528  1.00  0.00    -0.355 OA
HETATM   32  C   UNL     1      -0.087  18.000 -58.214  1.00  0.00     0.210 C 
ENDBRANCH  12  31
TORSDOF 7
ENDMDL
MODEL 5
REMARK VINA RESULT:      -6.5      2.396      6.938
REMARK  7 active torsions:
REMARK  status: ('A' for Active; 'I' for Inactive)
REMARK    1  A    between atoms: C_2  and  C_3 
REMARK    2  A    between atoms: C_8  and  O_31 
REMARK    3  A    between atoms: C_14  and  O_18 
REMARK    4  A    between atoms: C_22  and  C_23 
REMARK    5  A    between atoms: C_23  and  C_27 
REMARK    6  A    between atoms: C_24  and  O_25 
REMARK    7  A    between atoms: C_27  and  O_29 
ROOT
HETATM    1  C   UNL     1      -0.236  14.961 -60.453  1.00  0.00     0.022 C 
HETATM    2  C   UNL     1      -0.398  16.059 -61.555  1.00  0.00     0.278 C 
HETATM    3  N   UNL     1       0.739  16.970 -61.747  1.00  0.00     0.099 N 
HETATM    4  C   UNL     1       0.344  18.255 -62.430  1.00  0.00     0.277 C 
HETATM    5  C   UNL     1       1.404  19.447 -62.424  1.00  0.00     0.080 C 
HETATM    6  C   UNL     1       2.187  19.587 -61.068  1.00  0.00     0.132 C 
HETATM    7  C   UNL     1       2.550  18.133 -60.910  1.00  0.00     0.060 C 
HETATM    8  N   UNL     1       3.693  17.810 -61.479  1.00  0.00    -0.358 N 
ATOM      9  HN  UNL     1       4.037  16.879 -61.715  1.00  0.00     0.165 HD
HETATM   10  C   UNL     1       4.341  19.069 -61.689  1.00  0.00     0.044 C 
HETATM   11  C   UNL     1       3.607  20.068 -61.070  1.00  0.00     0.042 C 
HETATM   12  C   UNL     1       4.345  20.689 -60.081  1.00  0.00     0.080 C 
HETATM   13  C   UNL     1       5.695  20.969 -60.298  1.00  0.00     0.037 C 
HETATM   14  C   UNL     1       6.345  20.319 -61.349  1.00  0.00     0.005 C 
HETATM   15  C   UNL     1       5.686  19.257 -61.978  1.00  0.00     0.030 C 
HETATM   16  C   UNL     1       1.375  17.332 -60.482  1.00  0.00     0.272 C 
HETATM   17  C   UNL     1       1.629  16.317 -59.395  1.00  0.00     0.052 C 
HETATM   18  C   UNL     1       0.293  15.608 -59.142  1.00  0.00     0.035 C 
ENDROOT
BRANCH  18  19
HETATM   19  C   UNL     1       0.210  14.771 -57.882  1.00  0.00     0.043 C 
HETATM   20  C   UNL     1      -0.529  13.664 -57.631  1.00  0.00     0.147 C 
BRANCH  20  21
HETATM   21  O   UNL     1      -1.409  12.904 -58.341  1.00  0.00    -0.367 OA
HETATM   22  C   UNL     1      -2.785  12.826 -58.023  1.00  0.00     0.208 C 
ENDBRANCH  20  21
BRANCH  19  23
HETATM   23  C   UNL     1       0.980  15.255 -56.698  1.00  0.00     0.291 C 
HETATM   24  O   UNL     1       0.607  16.151 -55.963  1.00  0.00    -0.260 OA
BRANCH  23  25
HETATM   25  O   UNL     1       2.155  14.582 -56.600  1.00  0.00    -0.323 OA
HETATM   26  C   UNL     1       3.003  14.993 -55.527  1.00  0.00     0.213 C 
ENDBRANCH  23  25
ENDBRANCH  19  23
ENDBRANCH  18  19
BRANCH   1  27
HETATM   27  C   UNL     1       0.476  13.674 -60.928  1.00  0.00     0.002 C 
HETATM   28  C   UNL     1       0.372  13.260 -62.386  1.00  0.00     0.005 C 
ENDBRANCH   1  27
BRANCH   6  29
HETATM   29  O   UNL     1       1.359  20.236 -60.138  1.00  0.00    -0.379 OA
HETATM   30  H   UNL     1       0.513  20.419 -60.584  1.00  0.00     0.211 HD
ENDBRANCH   6  29
BRANCH  12  31
HETATM   31  O   UNL     1       3.940  20.558 -58.762  1.00  0.00    -0.355 OA
HETATM   32  C   UNL     1       5.087  20.729 -57.882  1.00  0.00     0.210 C 
ENDBRANCH  12  31
TORSDOF 7
ENDMDL
MODEL 6
REMARK VINA RESULT:      -6.4     17.772     19.256
REMARK  7 active torsions:
REMARK  status: ('A' for Active; 'I' for Inactive)
REMARK    1  A    between atoms: C_2  and  C_3 
REMARK    2  A    between atoms: C_8  and  O_31 
REMARK    3  A    between atoms: C_14  and  O_18 
REMARK    4  A    between atoms: C_22  and  C_23 
REMARK    5  A    between atoms: C_23  and  C_27 
REMARK    6  A    between atoms: C_24  and  O_25 
REMARK    7  A    between atoms: C_27  and  O_29 
ROOT
HETATM    1  C   UNL     1      13.413   2.402 -62.142  1.00  0.00     0.022 C 
HETATM    2  C   UNL     1      12.469   3.578 -62.557  1.00  0.00     0.278 C 
HETATM    3  N   UNL     1      11.498   4.028 -61.550  1.00  0.00     0.099 N 
HETATM    4  C   UNL     1      10.338   4.778 -62.156  1.00  0.00     0.277 C 
HETATM    5  C   UNL     1       9.072   5.051 -61.226  1.00  0.00     0.080 C 
HETATM    6  C   UNL     1       8.711   3.845 -60.283  1.00  0.00     0.132 C 
HETATM    7  C   UNL     1      10.102   3.590 -59.763  1.00  0.00     0.060 C 
HETATM    8  N   UNL     1      10.396   4.283 -58.682  1.00  0.00    -0.358 N 
ATOM      9  HN  UNL     1      11.317   4.467 -58.285  1.00  0.00     0.165 HD
HETATM   10  C   UNL     1       9.123   4.716 -58.193  1.00  0.00     0.044 C 
HETATM   11  C   UNL     1       8.120   4.105 -58.930  1.00  0.00     0.042 C 
HETATM   12  C   UNL     1       7.329   3.304 -58.128  1.00  0.00     0.080 C 
HETATM   13  C   UNL     1       6.968   3.744 -56.853  1.00  0.00     0.037 C 
HETATM   14  C   UNL     1       7.683   4.803 -56.292  1.00  0.00     0.005 C 
HETATM   15  C   UNL     1       8.862   5.215 -56.924  1.00  0.00     0.030 C 
HETATM   16  C   UNL     1      10.939   2.914 -60.786  1.00  0.00     0.272 C 
HETATM   17  C   UNL     1      11.796   1.775 -60.290  1.00  0.00     0.052 C 
HETATM   18  C   UNL     1      12.576   1.257 -61.504  1.00  0.00     0.035 C 
ENDROOT
BRANCH  18  19
HETATM   19  C   UNL     1      13.263  -0.082 -61.335  1.00  0.00     0.043 C 
HETATM   20  C   UNL     1      13.211  -0.951 -60.297  1.00  0.00     0.147 C 
BRANCH  20  21
HETATM   21  O   UNL     1      12.568  -0.990 -59.096  1.00  0.00    -0.367 OA
HETATM   22  C   UNL     1      11.523  -1.901 -58.815  1.00  0.00     0.208 C 
ENDBRANCH  20  21
BRANCH  19  23
HETATM   23  C   UNL     1      14.208  -0.497 -62.413  1.00  0.00     0.291 C 
HETATM   24  O   UNL     1      13.938  -0.478 -63.600  1.00  0.00    -0.260 OA
BRANCH  23  25
HETATM   25  O   UNL     1      15.374  -0.930 -61.868  1.00  0.00    -0.323 OA
HETATM   26  C   UNL     1      16.546  -0.254 -62.323  1.00  0.00     0.213 C 
ENDBRANCH  23  25
ENDBRANCH  19  23
ENDBRANCH  18  19
BRANCH   1  27
HETATM   27  C   UNL     1      14.685   2.838 -61.380  1.00  0.00     0.002 C 
HETATM   28  C   UNL     1      15.069   4.307 -61.350  1.00  0.00     0.005 C 
ENDBRANCH   1  27
BRANCH   6  29
HETATM   29  O   UNL     1       8.026   2.878 -61.036  1.00  0.00    -0.379 OA
HETATM   30  H   UNL     1       7.699   3.318 -61.841  1.00  0.00     0.211 HD
ENDBRANCH   6  29
BRANCH  12  31
HETATM   31  O   UNL     1       7.337   1.934 -58.336  1.00  0.00    -0.355 OA
HETATM   32  C   UNL     1       8.172   1.294 -57.329  1.00  0.00     0.210 C 
ENDBRANCH  12  31
TORSDOF 7
ENDMDL
MODEL 7
REMARK VINA RESULT:      -6.4      2.780      7.009
REMARK  7 active torsions:
REMARK  status: ('A' for Active; 'I' for Inactive)
REMARK    1  A    between atoms: C_2  and  C_3 
REMARK    2  A    between atoms: C_8  and  O_31 
REMARK    3  A    between atoms: C_14  and  O_18 
REMARK    4  A    between atoms: C_22  and  C_23 
REMARK    5  A    between atoms: C_23  and  C_27 
REMARK    6  A    between atoms: C_24  and  O_25 
REMARK    7  A    between atoms: C_27  and  O_29 
ROOT
HETATM    1  C   UNL     1       0.156  14.654 -60.778  1.00  0.00     0.022 C 
HETATM    2  C   UNL     1      -0.200  15.906 -61.647  1.00  0.00     0.278 C 
HETATM    3  N   UNL     1       0.847  16.928 -61.785  1.00  0.00     0.099 N 
HETATM    4  C   UNL     1       0.296  18.273 -62.187  1.00  0.00     0.277 C 
HETATM    5  C   UNL     1       1.270  19.530 -62.075  1.00  0.00     0.080 C 
HETATM    6  C   UNL     1       2.191  19.503 -60.800  1.00  0.00     0.132 C 
HETATM    7  C   UNL     1       2.662  18.079 -60.940  1.00  0.00     0.060 C 
HETATM    8  N   UNL     1       3.753  17.954 -61.668  1.00  0.00    -0.358 N 
ATOM      9  HN  UNL     1       4.127  17.108 -62.098  1.00  0.00     0.165 HD
HETATM   10  C   UNL     1       4.290  19.279 -61.714  1.00  0.00     0.044 C 
HETATM   11  C   UNL     1       3.566  20.095 -60.858  1.00  0.00     0.042 C 
HETATM   12  C   UNL     1       4.370  20.598 -59.852  1.00  0.00     0.080 C 
HETATM   13  C   UNL     1       5.665  21.022 -60.149  1.00  0.00     0.037 C 
HETATM   14  C   UNL     1       6.234  20.616 -61.357  1.00  0.00     0.005 C 
HETATM   15  C   UNL     1       5.579  19.625 -62.096  1.00  0.00     0.030 C 
HETATM   16  C   UNL     1       1.597  17.122 -60.546  1.00  0.00     0.272 C 
HETATM   17  C   UNL     1       2.036  15.962 -59.687  1.00  0.00     0.052 C 
HETATM   18  C   UNL     1       0.786  15.111 -59.433  1.00  0.00     0.035 C 
ENDROOT
BRANCH  18  19
HETATM   19  C   UNL     1       0.900  14.069 -58.340  1.00  0.00     0.043 C 
HETATM   20  C   UNL     1       1.518  14.146 -57.138  1.00  0.00     0.147 C 
BRANCH  20  21
HETATM   21  O   UNL     1       2.214  15.104 -56.464  1.00  0.00    -0.367 OA
HETATM   22  C   UNL     1       2.903  14.845 -55.256  1.00  0.00     0.208 C 
ENDBRANCH  20  21
BRANCH  19  23
HETATM   23  C   UNL     1       0.329  12.721 -58.632  1.00  0.00     0.291 C 
HETATM   24  O   UNL     1       1.001  11.722 -58.819  1.00  0.00    -0.260 OA
BRANCH  23  25
HETATM   25  O   UNL     1      -1.026  12.793 -58.698  1.00  0.00    -0.323 OA
HETATM   26  C   UNL     1      -1.693  12.857 -57.438  1.00  0.00     0.213 C 
ENDBRANCH  23  25
ENDBRANCH  19  23
ENDBRANCH  18  19
BRANCH   1  27
HETATM   27  C   UNL     1       0.892  13.531 -61.543  1.00  0.00     0.002 C 
HETATM   28  C   UNL     1       0.469  13.194 -62.963  1.00  0.00     0.005 C 
ENDBRANCH   1  27
BRANCH   6  29
HETATM   29  O   UNL     1       1.431  19.914 -59.692  1.00  0.00    -0.379 OA
HETATM   30  H   UNL     1       1.163  19.109 -59.212  1.00  0.00     0.211 HD
ENDBRANCH   6  29
BRANCH  12  31
HETATM   31  O   UNL     1       4.125  20.211 -58.544  1.00  0.00    -0.355 OA
HETATM   32  C   UNL     1       5.199  20.691 -57.686  1.00  0.00     0.210 C 
ENDBRANCH  12  31
TORSDOF 7
ENDMDL
MODEL 8
REMARK VINA RESULT:      -6.2      3.680      7.714
REMARK  7 active torsions:
REMARK  status: ('A' for Active; 'I' for Inactive)
REMARK    1  A    between atoms: C_2  and  C_3 
REMARK    2  A    between atoms: C_8  and  O_31 
REMARK    3  A    between atoms: C_14  and  O_18 
REMARK    4  A    between atoms: C_22  and  C_23 
REMARK    5  A    between atoms: C_23  and  C_27 
REMARK    6  A    between atoms: C_24  and  O_25 
REMARK    7  A    between atoms: C_27  and  O_29 
ROOT
HETATM    1  C   UNL     1       0.217  11.480 -61.019  1.00  0.00     0.022 C 
HETATM    2  C   UNL     1       0.465  12.384 -62.271  1.00  0.00     0.278 C 
HETATM    3  N   UNL     1       0.992  13.732 -62.014  1.00  0.00     0.099 N 
HETATM    4  C   UNL     1       0.739  14.682 -63.158  1.00  0.00     0.277 C 
HETATM    5  C   UNL     1       0.982  16.235 -62.891  1.00  0.00     0.080 C 
HETATM    6  C   UNL     1       0.513  16.711 -61.468  1.00  0.00     0.132 C 
HETATM    7  C   UNL     1       1.163  15.606 -60.677  1.00  0.00     0.060 C 
HETATM    8  N   UNL     1       2.398  15.880 -60.306  1.00  0.00    -0.358 N 
ATOM      9  HN  UNL     1       3.114  15.230 -59.980  1.00  0.00     0.165 HD
HETATM   10  C   UNL     1       2.500  17.297 -60.466  1.00  0.00     0.044 C 
HETATM   11  C   UNL     1       1.249  17.813 -60.768  1.00  0.00     0.042 C 
HETATM   12  C   UNL     1       0.826  18.696 -59.792  1.00  0.00     0.080 C 
HETATM   13  C   UNL     1       1.735  19.591 -59.228  1.00  0.00     0.037 C 
HETATM   14  C   UNL     1       3.099  19.349 -59.405  1.00  0.00     0.005 C 
HETATM   15  C   UNL     1       3.488  18.111 -59.929  1.00  0.00     0.030 C 
HETATM   16  C   UNL     1       0.411  14.334 -60.816  1.00  0.00     0.272 C 
HETATM   17  C   UNL     1       0.203  13.547 -59.546  1.00  0.00     0.052 C 
HETATM   18  C   UNL     1      -0.567  12.281 -59.940  1.00  0.00     0.035 C 
ENDROOT
BRANCH  18  19
HETATM   19  C   UNL     1      -1.172  11.486 -58.802  1.00  0.00     0.043 C 
HETATM   20  C   UNL     1      -1.366  11.844 -57.510  1.00  0.00     0.147 C 
BRANCH  20  21
HETATM   21  O   UNL     1      -1.137  12.963 -56.769  1.00  0.00    -0.367 OA
HETATM   22  C   UNL     1      -2.011  14.076 -56.771  1.00  0.00     0.208 C 
ENDBRANCH  20  21
BRANCH  19  23
HETATM   23  C   UNL     1      -1.543  10.069 -59.091  1.00  0.00     0.291 C 
HETATM   24  O   UNL     1      -0.743   9.203 -59.393  1.00  0.00    -0.260 OA
BRANCH  23  25
HETATM   25  O   UNL     1      -2.890   9.915 -59.006  1.00  0.00    -0.323 OA
HETATM   26  C   UNL     1      -3.368   8.598 -59.278  1.00  0.00     0.213 C 
ENDBRANCH  23  25
ENDBRANCH  19  23
ENDBRANCH  18  19
BRANCH   1  27
HETATM   27  C   UNL     1       1.460  10.699 -60.535  1.00  0.00     0.002 C 
HETATM   28  C   UNL     1       2.641  10.524 -61.473  1.00  0.00     0.005 C 
ENDBRANCH   1  27
BRANCH   6  29
HETATM   29  O   UNL     1      -0.883  16.869 -61.487  1.00  0.00    -0.379 OA
HETATM   30  H   UNL     1      -1.121  17.422 -60.721  1.00  0.00     0.211 HD
ENDBRANCH   6  29
BRANCH  12  31
HETATM   31  O   UNL     1      -0.281  18.366 -59.025  1.00  0.00    -0.355 OA
HETATM   32  C   UNL     1       0.150  17.645 -57.835  1.00  0.00     0.210 C 
ENDBRANCH  12  31
TORSDOF 7
ENDMDL
MODEL 9
REMARK VINA RESULT:      -6.1     15.402     18.201
REMARK  7 active torsions:
REMARK  status: ('A' for Active; 'I' for Inactive)
REMARK    1  A    between atoms: C_2  and  C_3 
REMARK    2  A    between atoms: C_8  and  O_31 
REMARK    3  A    between atoms: C_14  and  O_18 
REMARK    4  A    between atoms: C_22  and  C_23 
REMARK    5  A    between atoms: C_23  and  C_27 
REMARK    6  A    between atoms: C_24  and  O_25 
REMARK    7  A    between atoms: C_27  and  O_29 
ROOT
HETATM    1  C   UNL     1     -13.412  14.113 -62.654  1.00  0.00     0.022 C 
HETATM    2  C   UNL     1     -12.156  13.538 -63.388  1.00  0.00     0.278 C 
HETATM    3  N   UNL     1     -11.995  13.906 -64.802  1.00  0.00     0.099 N 
HETATM    4  C   UNL     1     -11.092  12.957 -65.549  1.00  0.00     0.277 C 
HETATM    5  C   UNL     1     -11.076  13.058 -67.141  1.00  0.00     0.080 C 
HETATM    6  C   UNL     1     -12.493  13.319 -67.771  1.00  0.00     0.132 C 
HETATM    7  C   UNL     1     -12.899  14.446 -66.857  1.00  0.00     0.060 C 
HETATM    8  N   UNL     1     -12.541  15.635 -67.295  1.00  0.00    -0.358 N 
ATOM      9  HN  UNL     1     -12.485  16.509 -66.770  1.00  0.00     0.165 HD
HETATM   10  C   UNL     1     -12.247  15.419 -68.679  1.00  0.00     0.044 C 
HETATM   11  C   UNL     1     -12.615  14.128 -69.026  1.00  0.00     0.042 C 
HETATM   12  C   UNL     1     -13.600  14.135 -69.996  1.00  0.00     0.080 C 
HETATM   13  C   UNL     1     -13.530  15.053 -71.045  1.00  0.00     0.037 C 
HETATM   14  C   UNL     1     -12.678  16.151 -70.908  1.00  0.00     0.005 C 
HETATM   15  C   UNL     1     -12.120  16.402 -69.650  1.00  0.00     0.030 C 
HETATM   16  C   UNL     1     -13.272  13.937 -65.512  1.00  0.00     0.272 C 
HETATM   17  C   UNL     1     -14.513  14.536 -64.901  1.00  0.00     0.052 C 
HETATM   18  C   UNL     1     -14.680  13.881 -63.525  1.00  0.00     0.035 C 
ENDROOT
BRANCH  18  19
HETATM   19  C   UNL     1     -16.021  14.079 -62.849  1.00  0.00     0.043 C 
HETATM   20  C   UNL     1     -16.604  13.353 -61.865  1.00  0.00     0.147 C 
BRANCH  20  21
HETATM   21  O   UNL     1     -16.258  12.260 -61.130  1.00  0.00    -0.367 OA
HETATM   22  C   UNL     1     -15.345  12.318 -60.051  1.00  0.00     0.208 C 
ENDBRANCH  20  21
BRANCH  19  23
HETATM   23  C   UNL     1     -16.887  15.173 -63.376  1.00  0.00     0.291 C 
HETATM   24  O   UNL     1     -17.745  15.015 -64.226  1.00  0.00    -0.260 OA
BRANCH  23  25
HETATM   25  O   UNL     1     -16.544  16.356 -62.803  1.00  0.00    -0.323 OA
HETATM   26  C   UNL     1     -16.501  17.472 -63.691  1.00  0.00     0.213 C 
ENDBRANCH  23  25
ENDBRANCH  19  23
ENDBRANCH  18  19
BRANCH   1  27
HETATM   27  C   UNL     1     -13.222  15.532 -62.071  1.00  0.00     0.002 C 
HETATM   28  C   UNL     1     -13.709  15.830 -60.664  1.00  0.00     0.005 C 
ENDBRANCH   1  27
BRANCH   6  29
HETATM   29  O   UNL     1     -13.202  12.107 -67.793  1.00  0.00    -0.379 OA
HETATM   30  H   UNL     1     -12.662  11.466 -68.288  1.00  0.00     0.211 HD
ENDBRANCH   6  29
BRANCH  12  31
HETATM   31  O   UNL     1     -14.857  13.647 -69.677  1.00  0.00    -0.355 OA
HETATM   32  C   UNL     1     -15.740  14.756 -69.346  1.00  0.00     0.210 C 
ENDBRANCH  12  31
TORSDOF 7
ENDMDL
MODEL 10
REMARK VINA RESULT:      -6.0     17.182     19.490
REMARK  7 active torsions:
REMARK  status: ('A' for Active; 'I' for Inactive)
REMARK    1  A    between atoms: C_2  and  C_3 
REMARK    2  A    between atoms: C_8  and  O_31 
REMARK    3  A    between atoms: C_14  and  O_18 
REMARK    4  A    between atoms: C_22  and  C_23 
REMARK    5  A    between atoms: C_23  and  C_27 
REMARK    6  A    between atoms: C_24  and  O_25 
REMARK    7  A    between atoms: C_27  and  O_29 
ROOT
HETATM    1  C   UNL     1     -16.150  17.171 -71.860  1.00  0.00     0.022 C 
HETATM    2  C   UNL     1     -14.623  16.839 -71.917  1.00  0.00     0.278 C 
HETATM    3  N   UNL     1     -14.062  16.125 -70.761  1.00  0.00     0.099 N 
HETATM    4  C   UNL     1     -12.566  16.280 -70.653  1.00  0.00     0.277 C 
HETATM    5  C   UNL     1     -11.875  15.820 -69.291  1.00  0.00     0.080 C 
HETATM    6  C   UNL     1     -12.711  16.178 -68.008  1.00  0.00     0.132 C 
HETATM    7  C   UNL     1     -14.038  15.661 -68.499  1.00  0.00     0.060 C 
HETATM    8  N   UNL     1     -14.246  14.390 -68.218  1.00  0.00    -0.358 N 
ATOM      9  HN  UNL     1     -14.933  13.759 -68.632  1.00  0.00     0.165 HD
HETATM   10  C   UNL     1     -13.284  14.101 -67.200  1.00  0.00     0.044 C 
HETATM   11  C   UNL     1     -12.664  15.278 -66.810  1.00  0.00     0.042 C 
HETATM   12  C   UNL     1     -12.903  15.548 -65.476  1.00  0.00     0.080 C 
HETATM   13  C   UNL     1     -12.878  14.508 -64.545  1.00  0.00     0.037 C 
HETATM   14  C   UNL     1     -12.958  13.197 -65.016  1.00  0.00     0.005 C 
HETATM   15  C   UNL     1     -13.291  12.996 -66.360  1.00  0.00     0.030 C 
HETATM   16  C   UNL     1     -14.636  16.583 -69.497  1.00  0.00     0.272 C 
HETATM   17  C   UNL     1     -16.111  16.859 -69.342  1.00  0.00     0.052 C 
HETATM   18  C   UNL     1     -16.499  17.806 -70.484  1.00  0.00     0.035 C 
ENDROOT
BRANCH  18  19
HETATM   19  C   UNL     1     -17.850  18.479 -70.363  1.00  0.00     0.043 C 
HETATM   20  C   UNL     1     -18.242  19.705 -70.785  1.00  0.00     0.147 C 
BRANCH  20  21
HETATM   21  O   UNL     1     -17.650  20.738 -71.447  1.00  0.00    -0.367 OA
HETATM   22  C   UNL     1     -17.185  20.631 -72.779  1.00  0.00     0.208 C 
ENDBRANCH  20  21
BRANCH  19  23
HETATM   23  C   UNL     1     -18.902  17.747 -69.598  1.00  0.00     0.291 C 
HETATM   24  O   UNL     1     -19.499  16.773 -70.021  1.00  0.00    -0.260 OA
BRANCH  23  25
HETATM   25  O   UNL     1     -19.115  18.354 -68.401  1.00  0.00    -0.323 OA
HETATM   26  C   UNL     1     -19.261  17.470 -67.290  1.00  0.00     0.213 C 
ENDBRANCH  23  25
ENDBRANCH  19  23
ENDBRANCH  18  19
BRANCH   1  27
HETATM   27  C   UNL     1     -17.073  16.032 -72.351  1.00  0.00     0.002 C 
HETATM   28  C   UNL     1     -16.483  14.894 -73.167  1.00  0.00     0.005 C 
ENDBRANCH   1  27
BRANCH   6  29
HETATM   29  O   UNL     1     -12.522  17.538 -67.716  1.00  0.00    -0.379 OA
HETATM   30  H   UNL     1     -13.292  18.019 -68.071  1.00  0.00     0.211 HD
ENDBRANCH   6  29
BRANCH  12  31
HETATM   31  O   UNL     1     -13.651  16.666 -65.142  1.00  0.00    -0.355 OA
HETATM   32  C   UNL     1     -13.583  16.885 -63.704  1.00  0.00     0.210 C 
ENDBRANCH  12  31
TORSDOF 7
ENDMDL
