MODEL 1
REMARK VINA RESULT:      -8.4      0.000      0.000
REMARK  7 active torsions:
REMARK  status: ('A' for Active; 'I' for Inactive)
REMARK    1  A    between atoms: C_2  and  C_3 
REMARK    2  A    between atoms: C_2  and  C_11 
REMARK    3  A    between atoms: C_2  and  O_36 
REMARK    4  A    between atoms: C_3  and  C_4 
REMARK    5  A    between atoms: C_4  and  C_5 
REMARK    6  A    between atoms: C_16  and  O_34 
REMARK    7  A    between atoms: C_27  and  O_30 
ROOT
HETATM    1  C   UNL     1       8.857   3.000 -57.414  1.00  0.00     0.062 C 
HETATM    2  C   UNL     1       9.809   1.819 -56.958  1.00  0.00     0.028 C 
HETATM    3  C   UNL     1      10.704   1.361 -58.140  1.00  0.00     0.024 C 
HETATM    4  C   UNL     1       9.715   1.293 -59.342  1.00  0.00    -0.015 C 
HETATM    5  C   UNL     1       9.220   2.472 -59.753  1.00  0.00     0.011 C 
HETATM    6  C   UNL     1       9.453   3.638 -58.777  1.00  0.00     0.112 C 
HETATM    7  C   UNL     1      11.034   3.836 -58.699  1.00  0.00     0.182 C 
HETATM    8  C   UNL     1      11.716   2.494 -58.382  1.00  0.00     0.035 C 
HETATM    9  C   UNL     1      12.741   2.622 -57.185  1.00  0.00     0.048 C 
HETATM   10  C   UNL     1      13.148   1.310 -56.391  1.00  0.00     0.273 C 
HETATM   11  N   UNL     1      12.388   0.047 -56.685  1.00  0.00     0.090 N 
HETATM   12  C   UNL     1      11.739   0.161 -58.013  1.00  0.00     0.240 C 
HETATM   13  C   UNL     1      12.109  -0.385 -59.449  1.00  0.00     0.076 C 
HETATM   14  C   UNL     1      12.500   0.866 -60.304  1.00  0.00    -0.046 C 
HETATM   15  C   UNL     1      12.312   2.170 -59.745  1.00  0.00    -0.003 C 
HETATM   16  C   UNL     1      12.331   3.308 -60.510  1.00  0.00     0.110 C 
HETATM   17  C   UNL     1      12.834   3.230 -61.795  1.00  0.00     0.102 C 
HETATM   18  C   UNL     1      13.096   1.967 -62.363  1.00  0.00     0.040 C 
HETATM   19  C   UNL     1      12.897   0.781 -61.633  1.00  0.00     0.011 C 
HETATM   20  O   UNL     1      11.691   4.371 -59.915  1.00  0.00    -0.338 OA
HETATM   21  C   UNL     1      11.557  -0.393 -55.584  1.00  0.00     0.310 C 
ENDROOT
BRANCH   1  22
HETATM   22  C   UNL     1       8.088   3.739 -56.235  1.00  0.00     0.061 C 
HETATM   23  C   UNL     1       6.680   4.233 -56.628  1.00  0.00     0.046 C 
BRANCH  22  24
HETATM   24  C   UNL     1       8.083   3.192 -54.788  1.00  0.00     0.042 C 
BRANCH  24  25
HETATM   25  C   UNL     1       6.810   2.551 -54.227  1.00  0.00     0.041 C 
BRANCH  25  26
HETATM   26  C   UNL     1       6.504   2.857 -52.791  1.00  0.00    -0.058 A 
HETATM   27  C   UNL     1       5.783   4.010 -52.452  1.00  0.00     0.007 A 
HETATM   28  C   UNL     1       5.475   4.289 -51.123  1.00  0.00     0.001 A 
HETATM   29  C   UNL     1       5.861   3.404 -50.120  1.00  0.00     0.000 A 
HETATM   30  C   UNL     1       6.549   2.236 -50.448  1.00  0.00     0.001 A 
HETATM   31  C   UNL     1       6.868   1.961 -51.778  1.00  0.00     0.007 A 
ENDBRANCH  25  26
ENDBRANCH  24  25
ENDBRANCH  22  24
BRANCH  22  32
HETATM   32  O   UNL     1       8.829   4.999 -56.056  1.00  0.00    -0.390 OA
HETATM   33  H   UNL     1       9.109   5.320 -56.931  1.00  0.00     0.210 HD
ENDBRANCH  22  32
ENDBRANCH   1  22
BRANCH   6  34
HETATM   34  O   UNL     1       8.847   4.855 -59.179  1.00  0.00    -0.378 OA
HETATM   35  C   UNL     1       8.559   5.030 -60.557  1.00  0.00     0.203 C 
ENDBRANCH   6  34
BRANCH  17  36
HETATM   36  O   UNL     1      13.095   4.339 -62.549  1.00  0.00    -0.353 OA
HETATM   37  C   UNL     1      11.875   4.762 -63.168  1.00  0.00     0.210 C 
ENDBRANCH  17  36
TORSDOF 7
ENDMDL
MODEL 2
REMARK VINA RESULT:      -7.9      2.344      3.938
REMARK  7 active torsions:
REMARK  status: ('A' for Active; 'I' for Inactive)
REMARK    1  A    between atoms: C_2  and  C_3 
REMARK    2  A    between atoms: C_2  and  C_11 
REMARK    3  A    between atoms: C_2  and  O_36 
REMARK    4  A    between atoms: C_3  and  C_4 
REMARK    5  A    between atoms: C_4  and  C_5 
REMARK    6  A    between atoms: C_16  and  O_34 
REMARK    7  A    between atoms: C_27  and  O_30 
ROOT
HETATM    1  C   UNL     1      10.326   3.254 -60.778  1.00  0.00     0.062 C 
HETATM    2  C   UNL     1      10.668   2.074 -59.777  1.00  0.00     0.028 C 
HETATM    3  C   UNL     1      12.135   1.609 -59.973  1.00  0.00     0.024 C 
HETATM    4  C   UNL     1      12.292   1.535 -61.521  1.00  0.00    -0.015 C 
HETATM    5  C   UNL     1      12.240   2.713 -62.166  1.00  0.00     0.011 C 
HETATM    6  C   UNL     1      11.716   3.884 -61.317  1.00  0.00     0.112 C 
HETATM    7  C   UNL     1      12.775   4.081 -60.140  1.00  0.00     0.182 C 
HETATM    8  C   UNL     1      13.025   2.741 -59.429  1.00  0.00     0.035 C 
HETATM    9  C   UNL     1      12.898   2.874 -57.858  1.00  0.00     0.048 C 
HETATM   10  C   UNL     1      12.615   1.567 -57.006  1.00  0.00     0.273 C 
HETATM   11  N   UNL     1      12.283   0.302 -57.748  1.00  0.00     0.090 N 
HETATM   12  C   UNL     1      12.769   0.410 -59.144  1.00  0.00     0.240 C 
HETATM   13  C   UNL     1      14.047  -0.145 -59.891  1.00  0.00     0.076 C 
HETATM   14  C   UNL     1      14.934   1.102 -60.220  1.00  0.00    -0.046 C 
HETATM   15  C   UNL     1      14.411   2.409 -59.964  1.00  0.00    -0.003 C 
HETATM   16  C   UNL     1      14.972   3.543 -60.493  1.00  0.00     0.110 C 
HETATM   17  C   UNL     1      16.238   3.457 -61.041  1.00  0.00     0.102 C 
HETATM   18  C   UNL     1      16.820   2.191 -61.251  1.00  0.00     0.040 C 
HETATM   19  C   UNL     1      16.157   1.009 -60.875  1.00  0.00     0.011 C 
HETATM   20  O   UNL     1      14.104   4.610 -60.533  1.00  0.00    -0.338 OA
HETATM   21  C   UNL     1      10.914  -0.131 -57.561  1.00  0.00     0.310 C 
ENDROOT
BRANCH   1  22
HETATM   22  C   UNL     1       8.951   3.999 -60.496  1.00  0.00     0.061 C 
HETATM   23  C   UNL     1       7.764   3.042 -60.262  1.00  0.00     0.046 C 
BRANCH  22  24
HETATM   24  C   UNL     1       8.856   5.218 -59.549  1.00  0.00     0.042 C 
BRANCH  24  25
HETATM   25  C   UNL     1       9.559   5.174 -58.189  1.00  0.00     0.041 C 
BRANCH  25  26
HETATM   26  C   UNL     1       8.915   4.307 -57.149  1.00  0.00    -0.058 A 
HETATM   27  C   UNL     1       9.700   3.477 -56.336  1.00  0.00     0.007 A 
HETATM   28  C   UNL     1       9.111   2.686 -55.352  1.00  0.00     0.001 A 
HETATM   29  C   UNL     1       7.735   2.736 -55.153  1.00  0.00     0.000 A 
HETATM   30  C   UNL     1       6.947   3.582 -55.932  1.00  0.00     0.001 A 
HETATM   31  C   UNL     1       7.534   4.367 -56.926  1.00  0.00     0.007 A 
ENDBRANCH  25  26
ENDBRANCH  24  25
ENDBRANCH  22  24
BRANCH  22  32
HETATM   32  O   UNL     1       8.607   4.620 -61.788  1.00  0.00    -0.390 OA
HETATM   33  H   UNL     1       8.638   3.936 -62.478  1.00  0.00     0.210 HD
ENDBRANCH  22  32
ENDBRANCH   1  22
BRANCH   6  34
HETATM   34  O   UNL     1      11.580   5.099 -62.035  1.00  0.00    -0.378 OA
HETATM   35  C   UNL     1      12.317   5.246 -63.237  1.00  0.00     0.203 C 
ENDBRANCH   6  34
BRANCH  17  36
HETATM   36  O   UNL     1      16.962   4.562 -61.391  1.00  0.00    -0.353 OA
HETATM   37  C   UNL     1      17.956   4.787 -60.385  1.00  0.00     0.210 C 
ENDBRANCH  17  36
TORSDOF 7
ENDMDL
MODEL 3
REMARK VINA RESULT:      -7.8      4.345      7.660
REMARK  7 active torsions:
REMARK  status: ('A' for Active; 'I' for Inactive)
REMARK    1  A    between atoms: C_2  and  C_3 
REMARK    2  A    between atoms: C_2  and  C_11 
REMARK    3  A    between atoms: C_2  and  O_36 
REMARK    4  A    between atoms: C_3  and  C_4 
REMARK    5  A    between atoms: C_4  and  C_5 
REMARK    6  A    between atoms: C_16  and  O_34 
REMARK    7  A    between atoms: C_27  and  O_30 
ROOT
HETATM    1  C   UNL     1      13.289   4.488 -61.465  1.00  0.00     0.062 C 
HETATM    2  C   UNL     1      14.346   5.240 -62.375  1.00  0.00     0.028 C 
HETATM    3  C   UNL     1      15.519   5.773 -61.510  1.00  0.00     0.024 C 
HETATM    4  C   UNL     1      14.807   6.397 -60.272  1.00  0.00    -0.015 C 
HETATM    5  C   UNL     1      14.182   5.525 -59.463  1.00  0.00     0.011 C 
HETATM    6  C   UNL     1      13.999   4.118 -60.058  1.00  0.00     0.112 C 
HETATM    7  C   UNL     1      15.469   3.536 -60.269  1.00  0.00     0.182 C 
HETATM    8  C   UNL     1      16.323   4.539 -61.062  1.00  0.00     0.035 C 
HETATM    9  C   UNL     1      17.059   3.853 -62.281  1.00  0.00     0.048 C 
HETATM   10  C   UNL     1      17.552   4.766 -63.482  1.00  0.00     0.273 C 
HETATM   11  N   UNL     1      17.117   6.205 -63.495  1.00  0.00     0.090 N 
HETATM   12  C   UNL     1      16.721   6.611 -62.125  1.00  0.00     0.240 C 
HETATM   13  C   UNL     1      17.454   7.420 -60.982  1.00  0.00     0.076 C 
HETATM   14  C   UNL     1      17.753   6.390 -59.842  1.00  0.00    -0.046 C 
HETATM   15  C   UNL     1      17.217   5.067 -59.948  1.00  0.00    -0.003 C 
HETATM   16  C   UNL     1      17.162   4.208 -58.881  1.00  0.00     0.110 C 
HETATM   17  C   UNL     1      17.904   4.507 -57.755  1.00  0.00     0.102 C 
HETATM   18  C   UNL     1      18.505   5.776 -57.636  1.00  0.00     0.040 C 
HETATM   19  C   UNL     1      18.403   6.733 -58.662  1.00  0.00     0.011 C 
HETATM   20  O   UNL     1      16.229   3.208 -59.039  1.00  0.00    -0.338 OA
HETATM   21  C   UNL     1      16.192   6.516 -64.564  1.00  0.00     0.310 C 
ENDROOT
BRANCH   1  22
HETATM   22  C   UNL     1      12.183   3.665 -62.257  1.00  0.00     0.061 C 
HETATM   23  C   UNL     1      12.573   2.195 -62.517  1.00  0.00     0.046 C 
BRANCH  22  24
HETATM   24  C   UNL     1      10.679   3.772 -61.915  1.00  0.00     0.042 C 
BRANCH  24  25
HETATM   25  C   UNL     1      10.190   4.903 -61.006  1.00  0.00     0.041 C 
BRANCH  25  26
HETATM   26  C   UNL     1       9.155   4.523 -59.989  1.00  0.00    -0.058 A 
HETATM   27  C   UNL     1       8.220   3.518 -60.274  1.00  0.00     0.007 A 
HETATM   28  C   UNL     1       7.270   3.143 -59.327  1.00  0.00     0.001 A 
HETATM   29  C   UNL     1       7.263   3.750 -58.074  1.00  0.00     0.000 A 
HETATM   30  C   UNL     1       8.210   4.726 -57.766  1.00  0.00     0.001 A 
HETATM   31  C   UNL     1       9.155   5.111 -58.718  1.00  0.00     0.007 A 
ENDBRANCH  25  26
ENDBRANCH  24  25
ENDBRANCH  22  24
BRANCH  22  32
HETATM   32  O   UNL     1      12.206   4.244 -63.611  1.00  0.00    -0.390 OA
HETATM   33  H   UNL     1      13.128   4.441 -63.848  1.00  0.00     0.210 HD
ENDBRANCH  22  32
ENDBRANCH   1  22
BRANCH   6  34
HETATM   34  O   UNL     1      13.258   3.237 -59.231  1.00  0.00    -0.378 OA
HETATM   35  C   UNL     1      12.508   3.797 -58.166  1.00  0.00     0.203 C 
ENDBRANCH   6  34
BRANCH  17  36
HETATM   36  O   UNL     1      18.085   3.614 -56.738  1.00  0.00    -0.353 OA
HETATM   37  C   UNL     1      19.341   2.954 -56.935  1.00  0.00     0.210 C 
ENDBRANCH  17  36
TORSDOF 7
ENDMDL
MODEL 4
REMARK VINA RESULT:      -7.6     25.956     28.869
REMARK  7 active torsions:
REMARK  status: ('A' for Active; 'I' for Inactive)
REMARK    1  A    between atoms: C_2  and  C_3 
REMARK    2  A    between atoms: C_2  and  C_11 
REMARK    3  A    between atoms: C_2  and  O_36 
REMARK    4  A    between atoms: C_3  and  C_4 
REMARK    5  A    between atoms: C_4  and  C_5 
REMARK    6  A    between atoms: C_16  and  O_34 
REMARK    7  A    between atoms: C_27  and  O_30 
ROOT
HETATM    1  C   UNL     1     -16.833  15.352 -64.008  1.00  0.00     0.062 C 
HETATM    2  C   UNL     1     -15.702  14.967 -62.967  1.00  0.00     0.028 C 
HETATM    3  C   UNL     1     -14.457  14.408 -63.706  1.00  0.00     0.024 C 
HETATM    4  C   UNL     1     -15.064  13.435 -64.761  1.00  0.00    -0.015 C 
HETATM    5  C   UNL     1     -15.783  14.013 -65.737  1.00  0.00     0.011 C 
HETATM    6  C   UNL     1     -16.155  15.483 -65.472  1.00  0.00     0.112 C 
HETATM    7  C   UNL     1     -14.775  16.282 -65.419  1.00  0.00     0.182 C 
HETATM    8  C   UNL     1     -13.812  15.602 -64.433  1.00  0.00     0.035 C 
HETATM    9  C   UNL     1     -13.188  16.634 -63.410  1.00  0.00     0.048 C 
HETATM   10  C   UNL     1     -12.600  16.087 -62.042  1.00  0.00     0.273 C 
HETATM   11  N   UNL     1     -12.847  14.644 -61.698  1.00  0.00     0.090 N 
HETATM   12  C   UNL     1     -13.166  13.892 -62.935  1.00  0.00     0.240 C 
HETATM   13  C   UNL     1     -12.318  12.947 -63.877  1.00  0.00     0.076 C 
HETATM   14  C   UNL     1     -12.138  13.723 -65.224  1.00  0.00    -0.046 C 
HETATM   15  C   UNL     1     -12.841  14.955 -65.411  1.00  0.00    -0.003 C 
HETATM   16  C   UNL     1     -12.989  15.538 -66.643  1.00  0.00     0.110 C 
HETATM   17  C   UNL     1     -12.198  15.090 -67.684  1.00  0.00     0.102 C 
HETATM   18  C   UNL     1     -11.437  13.915 -67.521  1.00  0.00     0.040 C 
HETATM   19  C   UNL     1     -11.431  13.209 -66.305  1.00  0.00     0.011 C 
HETATM   20  O   UNL     1     -14.045  16.419 -66.702  1.00  0.00    -0.338 OA
HETATM   21  C   UNL     1     -13.740  14.466 -60.573  1.00  0.00     0.310 C 
ENDROOT
BRANCH   1  22
HETATM   22  C   UNL     1     -18.047  16.184 -63.407  1.00  0.00     0.061 C 
HETATM   23  C   UNL     1     -18.924  15.379 -62.426  1.00  0.00     0.046 C 
BRANCH  22  24
HETATM   24  C   UNL     1     -17.879  17.639 -62.911  1.00  0.00     0.042 C 
BRANCH  24  25
HETATM   25  C   UNL     1     -16.565  18.380 -63.175  1.00  0.00     0.041 C 
BRANCH  25  26
HETATM   26  C   UNL     1     -15.718  18.659 -61.969  1.00  0.00    -0.058 A 
HETATM   27  C   UNL     1     -15.778  17.812 -60.853  1.00  0.00     0.007 A 
HETATM   28  C   UNL     1     -14.979  18.052 -59.738  1.00  0.00     0.001 A 
HETATM   29  C   UNL     1     -14.091  19.123 -59.737  1.00  0.00     0.000 A 
HETATM   30  C   UNL     1     -13.997  19.952 -60.855  1.00  0.00     0.001 A 
HETATM   31  C   UNL     1     -14.806  19.721 -61.968  1.00  0.00     0.007 A 
ENDBRANCH  25  26
ENDBRANCH  24  25
ENDBRANCH  22  24
BRANCH  22  32
HETATM   32  O   UNL     1     -18.951  16.380 -64.553  1.00  0.00    -0.390 OA
HETATM   33  H   UNL     1     -19.861  16.462 -64.219  1.00  0.00     0.210 HD
ENDBRANCH  22  32
ENDBRANCH   1  22
BRANCH   6  34
HETATM   34  O   UNL     1     -16.991  16.052 -66.465  1.00  0.00    -0.378 OA
HETATM   35  C   UNL     1     -17.296  15.268 -67.607  1.00  0.00     0.203 C 
ENDBRANCH   6  34
BRANCH  17  36
HETATM   36  O   UNL     1     -12.117  15.746 -68.879  1.00  0.00    -0.353 OA
HETATM   37  C   UNL     1     -12.851  14.999 -69.855  1.00  0.00     0.210 C 
ENDBRANCH  17  36
TORSDOF 7
ENDMDL
MODEL 5
REMARK VINA RESULT:      -7.6      3.761      7.462
REMARK  7 active torsions:
REMARK  status: ('A' for Active; 'I' for Inactive)
REMARK    1  A    between atoms: C_2  and  C_3 
REMARK    2  A    between atoms: C_2  and  C_11 
REMARK    3  A    between atoms: C_2  and  O_36 
REMARK    4  A    between atoms: C_3  and  C_4 
REMARK    5  A    between atoms: C_4  and  C_5 
REMARK    6  A    between atoms: C_16  and  O_34 
REMARK    7  A    between atoms: C_27  and  O_30 
ROOT
HETATM    1  C   UNL     1      14.157   1.457 -58.708  1.00  0.00     0.062 C 
HETATM    2  C   UNL     1      14.578   2.433 -59.883  1.00  0.00     0.028 C 
HETATM    3  C   UNL     1      13.319   3.020 -60.573  1.00  0.00     0.024 C 
HETATM    4  C   UNL     1      12.382   1.785 -60.735  1.00  0.00    -0.015 C 
HETATM    5  C   UNL     1      11.907   1.265 -59.592  1.00  0.00     0.011 C 
HETATM    6  C   UNL     1      12.616   1.762 -58.320  1.00  0.00     0.112 C 
HETATM    7  C   UNL     1      12.321   3.327 -58.237  1.00  0.00     0.182 C 
HETATM    8  C   UNL     1      12.691   4.002 -59.569  1.00  0.00     0.035 C 
HETATM    9  C   UNL     1      13.606   5.273 -59.352  1.00  0.00     0.048 C 
HETATM   10  C   UNL     1      14.490   5.788 -60.564  1.00  0.00     0.273 C 
HETATM   11  N   UNL     1      14.568   4.926 -61.793  1.00  0.00     0.090 N 
HETATM   12  C   UNL     1      13.408   4.002 -61.820  1.00  0.00     0.240 C 
HETATM   13  C   UNL     1      12.030   4.018 -62.593  1.00  0.00     0.076 C 
HETATM   14  C   UNL     1      10.926   4.263 -61.512  1.00  0.00    -0.046 C 
HETATM   15  C   UNL     1      11.301   4.264 -60.130  1.00  0.00    -0.003 C 
HETATM   16  C   UNL     1      10.380   4.162 -59.119  1.00  0.00     0.110 C 
HETATM   17  C   UNL     1       9.046   4.361 -59.419  1.00  0.00     0.102 C 
HETATM   18  C   UNL     1       8.640   4.433 -60.767  1.00  0.00     0.040 C 
HETATM   19  C   UNL     1       9.573   4.349 -61.816  1.00  0.00     0.011 C 
HETATM   20  O   UNL     1      10.924   3.719 -57.934  1.00  0.00    -0.338 OA
HETATM   21  C   UNL     1      15.876   4.342 -62.004  1.00  0.00     0.310 C 
ENDROOT
BRANCH   1  22
HETATM   22  C   UNL     1      15.342   1.004 -57.750  1.00  0.00     0.061 C 
HETATM   23  C   UNL     1      16.444   0.197 -58.467  1.00  0.00     0.046 C 
BRANCH  22  24
HETATM   24  C   UNL     1      15.966   1.960 -56.707  1.00  0.00     0.042 C 
BRANCH  24  25
HETATM   25  C   UNL     1      15.391   3.370 -56.536  1.00  0.00     0.041 C 
BRANCH  25  26
HETATM   26  C   UNL     1      16.199   4.482 -57.136  1.00  0.00    -0.058 A 
HETATM   27  C   UNL     1      16.111   5.780 -56.614  1.00  0.00     0.007 A 
HETATM   28  C   UNL     1      16.874   6.814 -57.151  1.00  0.00     0.001 A 
HETATM   29  C   UNL     1      17.755   6.555 -58.197  1.00  0.00     0.000 A 
HETATM   30  C   UNL     1      17.877   5.261 -58.703  1.00  0.00     0.001 A 
HETATM   31  C   UNL     1      17.104   4.226 -58.173  1.00  0.00     0.007 A 
ENDBRANCH  25  26
ENDBRANCH  24  25
ENDBRANCH  22  24
BRANCH  22  32
HETATM   32  O   UNL     1      14.729  -0.007 -56.872  1.00  0.00    -0.390 OA
HETATM   33  H   UNL     1      13.909  -0.323 -57.289  1.00  0.00     0.210 HD
ENDBRANCH  22  32
ENDBRANCH   1  22
BRANCH   6  34
HETATM   34  O   UNL     1      12.166   1.135 -57.130  1.00  0.00    -0.378 OA
HETATM   35  C   UNL     1      11.144   0.158 -57.238  1.00  0.00     0.203 C 
ENDBRANCH   6  34
BRANCH  17  36
HETATM   36  O   UNL     1       8.090   4.497 -58.453  1.00  0.00    -0.353 OA
HETATM   37  C   UNL     1       7.164   3.412 -58.579  1.00  0.00     0.210 C 
ENDBRANCH  17  36
TORSDOF 7
ENDMDL
MODEL 6
REMARK VINA RESULT:      -7.6      2.762      7.761
REMARK  7 active torsions:
REMARK  status: ('A' for Active; 'I' for Inactive)
REMARK    1  A    between atoms: C_2  and  C_3 
REMARK    2  A    between atoms: C_2  and  C_11 
REMARK    3  A    between atoms: C_2  and  O_36 
REMARK    4  A    between atoms: C_3  and  C_4 
REMARK    5  A    between atoms: C_4  and  C_5 
REMARK    6  A    between atoms: C_16  and  O_34 
REMARK    7  A    between atoms: C_27  and  O_30 
ROOT
HETATM    1  C   UNL     1      11.767   1.761 -59.986  1.00  0.00     0.062 C 
HETATM    2  C   UNL     1      10.623   2.808 -60.314  1.00  0.00     0.028 C 
HETATM    3  C   UNL     1       9.556   2.810 -59.188  1.00  0.00     0.024 C 
HETATM    4  C   UNL     1       9.322   1.296 -58.903  1.00  0.00    -0.015 C 
HETATM    5  C   UNL     1      10.360   0.641 -58.359  1.00  0.00     0.011 C 
HETATM    6  C   UNL     1      11.695   1.405 -58.410  1.00  0.00     0.112 C 
HETATM    7  C   UNL     1      11.489   2.709 -57.514  1.00  0.00     0.182 C 
HETATM    8  C   UNL     1      10.222   3.458 -57.960  1.00  0.00     0.035 C 
HETATM    9  C   UNL     1      10.499   4.997 -58.196  1.00  0.00     0.048 C 
HETATM   10  C   UNL     1       9.501   5.815 -59.119  1.00  0.00     0.273 C 
HETATM   11  N   UNL     1       8.461   5.045 -59.885  1.00  0.00     0.090 N 
HETATM   12  C   UNL     1       8.257   3.724 -59.244  1.00  0.00     0.240 C 
HETATM   13  C   UNL     1       7.156   3.156 -58.262  1.00  0.00     0.076 C 
HETATM   14  C   UNL     1       7.870   2.937 -56.887  1.00  0.00    -0.046 C 
HETATM   15  C   UNL     1       9.288   3.112 -56.809  1.00  0.00    -0.003 C 
HETATM   16  C   UNL     1      10.029   2.652 -55.751  1.00  0.00     0.110 C 
HETATM   17  C   UNL     1       9.368   2.276 -54.598  1.00  0.00     0.102 C 
HETATM   18  C   UNL     1       7.964   2.154 -54.610  1.00  0.00     0.040 C 
HETATM   19  C   UNL     1       7.214   2.450 -55.763  1.00  0.00     0.011 C 
HETATM   20  O   UNL     1      11.362   2.490 -56.053  1.00  0.00    -0.338 OA
HETATM   21  C   UNL     1       8.678   5.054 -61.316  1.00  0.00     0.310 C 
ENDROOT
BRANCH   1  22
HETATM   22  C   UNL     1      13.052   1.854 -60.918  1.00  0.00     0.061 C 
HETATM   23  C   UNL     1      12.730   1.793 -62.425  1.00  0.00     0.046 C 
BRANCH  22  24
HETATM   24  C   UNL     1      14.190   2.866 -60.649  1.00  0.00     0.042 C 
BRANCH  24  25
HETATM   25  C   UNL     1      13.847   4.339 -60.402  1.00  0.00     0.041 C 
BRANCH  25  26
HETATM   26  C   UNL     1      14.705   5.049 -59.397  1.00  0.00    -0.058 A 
HETATM   27  C   UNL     1      14.992   4.449 -58.163  1.00  0.00     0.007 A 
HETATM   28  C   UNL     1      15.807   5.092 -57.234  1.00  0.00     0.001 A 
HETATM   29  C   UNL     1      16.365   6.330 -57.540  1.00  0.00     0.000 A 
HETATM   30  C   UNL     1      16.115   6.921 -58.777  1.00  0.00     0.001 A 
HETATM   31  C   UNL     1      15.289   6.283 -59.705  1.00  0.00     0.007 A 
ENDBRANCH  25  26
ENDBRANCH  24  25
ENDBRANCH  22  24
BRANCH  22  32
HETATM   32  O   UNL     1      13.753   0.578 -60.691  1.00  0.00    -0.390 OA
HETATM   33  H   UNL     1      14.199   0.319 -61.516  1.00  0.00     0.210 HD
ENDBRANCH  22  32
ENDBRANCH   1  22
BRANCH   6  34
HETATM   34  O   UNL     1      12.800   0.666 -57.916  1.00  0.00    -0.378 OA
HETATM   35  C   UNL     1      12.545  -0.606 -57.342  1.00  0.00     0.203 C 
ENDBRANCH   6  34
BRANCH  17  36
HETATM   36  O   UNL     1      10.024   2.016 -53.428  1.00  0.00    -0.353 OA
HETATM   37  C   UNL     1      10.262   0.606 -53.347  1.00  0.00     0.210 C 
ENDBRANCH  17  36
TORSDOF 7
ENDMDL
MODEL 7
REMARK VINA RESULT:      -7.3     26.065     28.938
REMARK  7 active torsions:
REMARK  status: ('A' for Active; 'I' for Inactive)
REMARK    1  A    between atoms: C_2  and  C_3 
REMARK    2  A    between atoms: C_2  and  C_11 
REMARK    3  A    between atoms: C_2  and  O_36 
REMARK    4  A    between atoms: C_3  and  C_4 
REMARK    5  A    between atoms: C_4  and  C_5 
REMARK    6  A    between atoms: C_16  and  O_34 
REMARK    7  A    between atoms: C_27  and  O_30 
ROOT
HETATM    1  C   UNL     1     -14.939  16.257 -62.152  1.00  0.00     0.062 C 
HETATM    2  C   UNL     1     -14.661  14.701 -62.253  1.00  0.00     0.028 C 
HETATM    3  C   UNL     1     -14.517  14.086 -60.835  1.00  0.00     0.024 C 
HETATM    4  C   UNL     1     -13.608  15.105 -60.086  1.00  0.00    -0.015 C 
HETATM    5  C   UNL     1     -14.154  16.311 -59.858  1.00  0.00     0.011 C 
HETATM    6  C   UNL     1     -15.443  16.589 -60.651  1.00  0.00     0.112 C 
HETATM    7  C   UNL     1     -16.513  15.525 -60.133  1.00  0.00     0.182 C 
HETATM    8  C   UNL     1     -15.923  14.107 -60.208  1.00  0.00     0.035 C 
HETATM    9  C   UNL     1     -16.898  13.099 -60.938  1.00  0.00     0.048 C 
HETATM   10  C   UNL     1     -16.292  11.770 -61.557  1.00  0.00     0.273 C 
HETATM   11  N   UNL     1     -14.796  11.632 -61.597  1.00  0.00     0.090 N 
HETATM   12  C   UNL     1     -14.191  12.548 -60.600  1.00  0.00     0.240 C 
HETATM   13  C   UNL     1     -13.618  12.336 -59.143  1.00  0.00     0.076 C 
HETATM   14  C   UNL     1     -14.613  13.057 -58.173  1.00  0.00    -0.046 C 
HETATM   15  C   UNL     1     -15.670  13.845 -58.730  1.00  0.00    -0.003 C 
HETATM   16  C   UNL     1     -16.387  14.745 -57.985  1.00  0.00     0.110 C 
HETATM   17  C   UNL     1     -16.294  14.682 -56.607  1.00  0.00     0.102 C 
HETATM   18  C   UNL     1     -15.310  13.867 -56.014  1.00  0.00     0.040 C 
HETATM   19  C   UNL     1     -14.444  13.080 -56.794  1.00  0.00     0.011 C 
HETATM   20  O   UNL     1     -17.007  15.709 -58.748  1.00  0.00    -0.338 OA
HETATM   21  C   UNL     1     -14.250  11.668 -62.937  1.00  0.00     0.310 C 
ENDROOT
BRANCH   1  22
HETATM   22  C   UNL     1     -15.374  16.953 -63.513  1.00  0.00     0.061 C 
HETATM   23  C   UNL     1     -15.076  18.466 -63.559  1.00  0.00     0.046 C 
BRANCH  22  24
HETATM   24  C   UNL     1     -15.097  16.307 -64.891  1.00  0.00     0.042 C 
BRANCH  24  25
HETATM   25  C   UNL     1     -13.776  16.599 -65.610  1.00  0.00     0.041 C 
BRANCH  25  26
HETATM   26  C   UNL     1     -12.944  15.401 -65.959  1.00  0.00    -0.058 A 
HETATM   27  C   UNL     1     -12.528  15.190 -67.281  1.00  0.00     0.007 A 
HETATM   28  C   UNL     1     -11.736  14.093 -67.609  1.00  0.00     0.001 A 
HETATM   29  C   UNL     1     -11.328  13.209 -66.614  1.00  0.00     0.000 A 
HETATM   30  C   UNL     1     -11.707  13.426 -65.289  1.00  0.00     0.001 A 
HETATM   31  C   UNL     1     -12.510  14.519 -64.961  1.00  0.00     0.007 A 
ENDBRANCH  25  26
ENDBRANCH  24  25
ENDBRANCH  22  24
BRANCH  22  32
HETATM   32  O   UNL     1     -16.847  16.921 -63.480  1.00  0.00    -0.390 OA
HETATM   33  H   UNL     1     -17.154  16.218 -64.078  1.00  0.00     0.210 HD
ENDBRANCH  22  32
ENDBRANCH   1  22
BRANCH   6  34
HETATM   34  O   UNL     1     -15.957  17.898 -60.471  1.00  0.00    -0.378 OA
HETATM   35  C   UNL     1     -15.131  18.854 -59.827  1.00  0.00     0.203 C 
ENDBRANCH   6  34
BRANCH  17  36
HETATM   36  O   UNL     1     -17.129  15.383 -55.784  1.00  0.00    -0.353 OA
HETATM   37  C   UNL     1     -16.968  14.887 -54.450  1.00  0.00     0.210 C 
ENDBRANCH  17  36
TORSDOF 7
ENDMDL
MODEL 8
REMARK VINA RESULT:      -7.1     17.125     20.179
REMARK  7 active torsions:
REMARK  status: ('A' for Active; 'I' for Inactive)
REMARK    1  A    between atoms: C_2  and  C_3 
REMARK    2  A    between atoms: C_2  and  C_11 
REMARK    3  A    between atoms: C_2  and  O_36 
REMARK    4  A    between atoms: C_3  and  C_4 
REMARK    5  A    between atoms: C_4  and  C_5 
REMARK    6  A    between atoms: C_16  and  O_34 
REMARK    7  A    between atoms: C_27  and  O_30 
ROOT
HETATM    1  C   UNL     1      13.748  17.020 -49.373  1.00  0.00     0.062 C 
HETATM    2  C   UNL     1      13.056  18.277 -48.702  1.00  0.00     0.028 C 
HETATM    3  C   UNL     1      12.722  17.979 -47.216  1.00  0.00     0.024 C 
HETATM    4  C   UNL     1      12.113  16.545 -47.259  1.00  0.00    -0.015 C 
HETATM    5  C   UNL     1      12.965  15.564 -47.599  1.00  0.00     0.011 C 
HETATM    6  C   UNL     1      14.296  16.051 -48.198  1.00  0.00     0.112 C 
HETATM    7  C   UNL     1      15.023  16.873 -47.041  1.00  0.00     0.182 C 
HETATM    8  C   UNL     1      14.068  17.934 -46.470  1.00  0.00     0.035 C 
HETATM    9  C   UNL     1      14.743  19.363 -46.406  1.00  0.00     0.048 C 
HETATM   10  C   UNL     1      13.807  20.642 -46.342  1.00  0.00     0.273 C 
HETATM   11  N   UNL     1      12.331  20.445 -46.548  1.00  0.00     0.090 N 
HETATM   12  C   UNL     1      11.982  19.029 -46.280  1.00  0.00     0.240 C 
HETATM   13  C   UNL     1      11.346  18.288 -45.037  1.00  0.00     0.076 C 
HETATM   14  C   UNL     1      12.482  17.399 -44.430  1.00  0.00    -0.046 C 
HETATM   15  C   UNL     1      13.725  17.293 -45.132  1.00  0.00    -0.003 C 
HETATM   16  C   UNL     1      14.648  16.319 -44.851  1.00  0.00     0.110 C 
HETATM   17  C   UNL     1      14.516  15.605 -43.675  1.00  0.00     0.102 C 
HETATM   18  C   UNL     1      13.335  15.729 -42.916  1.00  0.00     0.040 C 
HETATM   19  C   UNL     1      12.301  16.598 -43.309  1.00  0.00     0.011 C 
HETATM   20  O   UNL     1      15.523  16.085 -45.888  1.00  0.00    -0.338 OA
HETATM   21  C   UNL     1      11.841  21.018 -47.784  1.00  0.00     0.310 C 
ENDROOT
BRANCH   1  22
HETATM   22  C   UNL     1      14.382  17.286 -50.806  1.00  0.00     0.061 C 
HETATM   23  C   UNL     1      13.456  18.070 -51.758  1.00  0.00     0.046 C 
BRANCH  22  24
HETATM   24  C   UNL     1      15.850  17.742 -50.983  1.00  0.00     0.042 C 
BRANCH  24  25
HETATM   25  C   UNL     1      16.430  18.798 -50.038  1.00  0.00     0.041 C 
BRANCH  25  26
HETATM   26  C   UNL     1      16.149  20.226 -50.402  1.00  0.00    -0.058 A 
HETATM   27  C   UNL     1      15.093  20.916 -49.789  1.00  0.00     0.007 A 
HETATM   28  C   UNL     1      14.840  22.249 -50.105  1.00  0.00     0.001 A 
HETATM   29  C   UNL     1      15.655  22.914 -51.016  1.00  0.00     0.000 A 
HETATM   30  C   UNL     1      16.729  22.248 -51.607  1.00  0.00     0.001 A 
HETATM   31  C   UNL     1      16.978  20.909 -51.300  1.00  0.00     0.007 A 
ENDBRANCH  25  26
ENDBRANCH  24  25
ENDBRANCH  22  24
BRANCH  22  32
HETATM   32  O   UNL     1      14.426  15.953 -51.433  1.00  0.00    -0.390 OA
HETATM   33  H   UNL     1      13.695  15.887 -52.071  1.00  0.00     0.210 HD
ENDBRANCH  22  32
ENDBRANCH   1  22
BRANCH   6  34
HETATM   34  O   UNL     1      15.146  15.005 -48.637  1.00  0.00    -0.378 OA
HETATM   35  C   UNL     1      16.545  15.234 -48.621  1.00  0.00     0.203 C 
ENDBRANCH   6  34
BRANCH  17  36
HETATM   36  O   UNL     1      15.495  14.776 -43.207  1.00  0.00    -0.353 OA
HETATM   37  C   UNL     1      14.932  13.942 -42.188  1.00  0.00     0.210 C 
ENDBRANCH  17  36
TORSDOF 7
ENDMDL
MODEL 9
REMARK VINA RESULT:      -7.0      2.667      5.662
REMARK  7 active torsions:
REMARK  status: ('A' for Active; 'I' for Inactive)
REMARK    1  A    between atoms: C_2  and  C_3 
REMARK    2  A    between atoms: C_2  and  C_11 
REMARK    3  A    between atoms: C_2  and  O_36 
REMARK    4  A    between atoms: C_3  and  C_4 
REMARK    5  A    between atoms: C_4  and  C_5 
REMARK    6  A    between atoms: C_16  and  O_34 
REMARK    7  A    between atoms: C_27  and  O_30 
ROOT
HETATM    1  C   UNL     1      12.178   1.733 -56.282  1.00  0.00     0.062 C 
HETATM    2  C   UNL     1      10.653   1.959 -55.918  1.00  0.00     0.028 C 
HETATM    3  C   UNL     1       9.990   2.918 -56.943  1.00  0.00     0.024 C 
HETATM    4  C   UNL     1      11.042   4.055 -57.113  1.00  0.00    -0.015 C 
HETATM    5  C   UNL     1      12.192   3.696 -57.706  1.00  0.00     0.011 C 
HETATM    6  C   UNL     1      12.406   2.177 -57.822  1.00  0.00     0.112 C 
HETATM    7  C   UNL     1      11.243   1.642 -58.773  1.00  0.00     0.182 C 
HETATM    8  C   UNL     1       9.878   2.132 -58.262  1.00  0.00     0.035 C 
HETATM    9  C   UNL     1       8.832   0.952 -58.146  1.00  0.00     0.048 C 
HETATM   10  C   UNL     1       7.580   1.138 -57.189  1.00  0.00     0.273 C 
HETATM   11  N   UNL     1       7.558   2.341 -56.288  1.00  0.00     0.090 N 
HETATM   12  C   UNL     1       8.473   3.376 -56.826  1.00  0.00     0.240 C 
HETATM   13  C   UNL     1       8.242   4.693 -57.669  1.00  0.00     0.076 C 
HETATM   14  C   UNL     1       8.843   4.414 -59.087  1.00  0.00    -0.046 C 
HETATM   15  C   UNL     1       9.572   3.201 -59.301  1.00  0.00    -0.003 C 
HETATM   16  C   UNL     1      10.383   3.013 -60.392  1.00  0.00     0.110 C 
HETATM   17  C   UNL     1      10.268   3.886 -61.456  1.00  0.00     0.102 C 
HETATM   18  C   UNL     1       9.505   5.062 -61.312  1.00  0.00     0.040 C 
HETATM   19  C   UNL     1       8.820   5.347 -60.117  1.00  0.00     0.011 C 
HETATM   20  O   UNL     1      11.329   2.032 -60.201  1.00  0.00    -0.338 OA
HETATM   21  C   UNL     1       7.693   2.011 -54.885  1.00  0.00     0.310 C 
ENDROOT
BRANCH   1  22
HETATM   22  C   UNL     1      12.898   0.567 -55.476  1.00  0.00     0.061 C 
HETATM   23  C   UNL     1      12.886   0.772 -53.947  1.00  0.00     0.046 C 
BRANCH  22  24
HETATM   24  C   UNL     1      12.682  -0.925 -55.823  1.00  0.00     0.042 C 
BRANCH  24  25
HETATM   25  C   UNL     1      12.235  -1.314 -57.235  1.00  0.00     0.041 C 
BRANCH  25  26
HETATM   26  C   UNL     1      10.846  -1.868 -57.352  1.00  0.00    -0.058 A 
HETATM   27  C   UNL     1       9.988  -1.863 -56.243  1.00  0.00     0.007 A 
HETATM   28  C   UNL     1       8.690  -2.354 -56.348  1.00  0.00     0.001 A 
HETATM   29  C   UNL     1       8.225  -2.832 -57.571  1.00  0.00     0.000 A 
HETATM   30  C   UNL     1       9.058  -2.812 -58.689  1.00  0.00     0.001 A 
HETATM   31  C   UNL     1      10.364  -2.330 -58.582  1.00  0.00     0.007 A 
ENDBRANCH  25  26
ENDBRANCH  24  25
ENDBRANCH  22  24
BRANCH  22  32
HETATM   32  O   UNL     1      14.324   0.728 -55.807  1.00  0.00    -0.390 OA
HETATM   33  H   UNL     1      14.579   1.652 -55.637  1.00  0.00     0.210 HD
ENDBRANCH  22  32
ENDBRANCH   1  22
BRANCH   6  34
HETATM   34  O   UNL     1      13.663   1.813 -58.366  1.00  0.00    -0.378 OA
HETATM   35  C   UNL     1      14.531   2.852 -58.789  1.00  0.00     0.203 C 
ENDBRANCH   6  34
BRANCH  17  36
HETATM   36  O   UNL     1      10.867   3.655 -62.662  1.00  0.00    -0.353 OA
HETATM   37  C   UNL     1      11.812   4.704 -62.905  1.00  0.00     0.210 C 
ENDBRANCH  17  36
TORSDOF 7
ENDMDL
MODEL 10
REMARK VINA RESULT:      -7.0      2.595      4.461
REMARK  7 active torsions:
REMARK  status: ('A' for Active; 'I' for Inactive)
REMARK    1  A    between atoms: C_2  and  C_3 
REMARK    2  A    between atoms: C_2  and  C_11 
REMARK    3  A    between atoms: C_2  and  O_36 
REMARK    4  A    between atoms: C_3  and  C_4 
REMARK    5  A    between atoms: C_4  and  C_5 
REMARK    6  A    between atoms: C_16  and  O_34 
REMARK    7  A    between atoms: C_27  and  O_30 
ROOT
HETATM    1  C   UNL     1      12.697   2.818 -56.238  1.00  0.00     0.062 C 
HETATM    2  C   UNL     1      11.332   3.495 -56.674  1.00  0.00     0.028 C 
HETATM    3  C   UNL     1      11.265   3.626 -58.218  1.00  0.00     0.024 C 
HETATM    4  C   UNL     1      12.681   4.151 -58.602  1.00  0.00    -0.015 C 
HETATM    5  C   UNL     1      13.693   3.293 -58.397  1.00  0.00     0.011 C 
HETATM    6  C   UNL     1      13.333   2.076 -57.527  1.00  0.00     0.112 C 
HETATM    7  C   UNL     1      12.233   1.261 -58.347  1.00  0.00     0.182 C 
HETATM    8  C   UNL     1      11.090   2.199 -58.768  1.00  0.00     0.035 C 
HETATM    9  C   UNL     1       9.672   1.605 -58.397  1.00  0.00     0.048 C 
HETATM   10  C   UNL     1       8.441   2.598 -58.277  1.00  0.00     0.273 C 
HETATM   11  N   UNL     1       8.722   4.074 -58.322  1.00  0.00     0.090 N 
HETATM   12  C   UNL     1      10.037   4.305 -58.966  1.00  0.00     0.240 C 
HETATM   13  C   UNL     1      10.468   4.740 -60.422  1.00  0.00     0.076 C 
HETATM   14  C   UNL     1      11.150   3.489 -61.068  1.00  0.00    -0.046 C 
HETATM   15  C   UNL     1      11.392   2.337 -60.253  1.00  0.00    -0.003 C 
HETATM   16  C   UNL     1      12.244   1.332 -60.635  1.00  0.00     0.110 C 
HETATM   17  C   UNL     1      12.650   1.278 -61.954  1.00  0.00     0.102 C 
HETATM   18  C   UNL     1      12.375   2.362 -62.811  1.00  0.00     0.040 C 
HETATM   19  C   UNL     1      11.656   3.485 -62.363  1.00  0.00     0.011 C 
HETATM   20  O   UNL     1      12.701   0.579 -59.577  1.00  0.00    -0.338 OA
HETATM   21  C   UNL     1       8.482   4.744 -57.061  1.00  0.00     0.310 C 
ENDROOT
BRANCH   1  22
HETATM   22  C   UNL     1      12.774   2.380 -54.711  1.00  0.00     0.061 C 
HETATM   23  C   UNL     1      12.952   3.562 -53.736  1.00  0.00     0.046 C 
BRANCH  22  24
HETATM   24  C   UNL     1      11.817   1.324 -54.111  1.00  0.00     0.042 C 
BRANCH  24  25
HETATM   25  C   UNL     1      10.724   0.709 -54.990  1.00  0.00     0.041 C 
BRANCH  25  26
HETATM   26  C   UNL     1       9.328   1.191 -54.729  1.00  0.00    -0.058 A 
HETATM   27  C   UNL     1       9.112   2.437 -54.124  1.00  0.00     0.007 A 
HETATM   28  C   UNL     1       7.818   2.901 -53.899  1.00  0.00     0.001 A 
HETATM   29  C   UNL     1       6.726   2.137 -54.302  1.00  0.00     0.000 A 
HETATM   30  C   UNL     1       6.928   0.912 -54.936  1.00  0.00     0.001 A 
HETATM   31  C   UNL     1       8.224   0.439 -55.152  1.00  0.00     0.007 A 
ENDBRANCH  25  26
ENDBRANCH  24  25
ENDBRANCH  22  24
BRANCH  22  32
HETATM   32  O   UNL     1      14.066   1.682 -54.602  1.00  0.00    -0.390 OA
HETATM   33  H   UNL     1      14.671   2.230 -54.073  1.00  0.00     0.210 HD
ENDBRANCH  22  32
ENDBRANCH   1  22
BRANCH   6  34
HETATM   34  O   UNL     1      14.432   1.227 -57.243  1.00  0.00    -0.378 OA
HETATM   35  C   UNL     1      15.693   1.565 -57.795  1.00  0.00     0.203 C 
ENDBRANCH   6  34
BRANCH  17  36
HETATM   36  O   UNL     1      13.313   0.202 -62.474  1.00  0.00    -0.353 OA
HETATM   37  C   UNL     1      14.686   0.564 -62.657  1.00  0.00     0.210 C 
ENDBRANCH  17  36
TORSDOF 7
ENDMDL
