MODEL 1
REMARK VINA RESULT:      -8.8      0.000      0.000
REMARK  7 active torsions:
REMARK  status: ('A' for Active; 'I' for Inactive)
REMARK    1  A    between atoms: C_2  and  C_3 
REMARK    2  A    between atoms: C_3  and  C_4 
REMARK    3  A    between atoms: C_4  and  O_33 
REMARK    4  A    between atoms: C_4  and  C_6 
REMARK    5  A    between atoms: C_11  and  O_31 
REMARK    6  A    between atoms: C_22  and  O_25 
REMARK    7  A    between atoms: O_25  and  C_26 
ROOT
HETATM    1  C   UNL     1      -0.763  16.270 -57.727  1.00  0.00     0.062 C 
HETATM    2  C   UNL     1      -0.164  17.522 -58.542  1.00  0.00     0.028 C 
HETATM    3  C   UNL     1       0.029  17.108 -60.048  1.00  0.00     0.024 C 
HETATM    4  C   UNL     1      -1.317  16.419 -60.379  1.00  0.00    -0.015 C 
HETATM    5  C   UNL     1      -1.548  15.261 -59.727  1.00  0.00     0.011 C 
HETATM    6  C   UNL     1      -0.562  14.942 -58.598  1.00  0.00     0.112 C 
HETATM    7  C   UNL     1       0.894  14.853 -59.197  1.00  0.00     0.182 C 
HETATM    8  C   UNL     1       1.177  16.081 -60.076  1.00  0.00     0.035 C 
HETATM    9  C   UNL     1       2.534  16.793 -59.683  1.00  0.00     0.048 C 
HETATM   10  C   UNL     1       2.720  18.332 -60.051  1.00  0.00     0.273 C 
HETATM   11  N   UNL     1       1.515  19.076 -60.588  1.00  0.00     0.090 N 
HETATM   12  C   UNL     1       0.609  18.068 -61.179  1.00  0.00     0.240 C 
HETATM   13  C   UNL     1       0.196  17.568 -62.609  1.00  0.00     0.076 C 
HETATM   14  C   UNL     1       0.596  16.058 -62.654  1.00  0.00    -0.046 C 
HETATM   15  C   UNL     1       1.070  15.432 -61.458  1.00  0.00    -0.003 C 
HETATM   16  C   UNL     1       1.053  14.064 -61.317  1.00  0.00     0.111 C 
HETATM   17  C   UNL     1       0.739  13.271 -62.402  1.00  0.00     0.113 C 
HETATM   18  C   UNL     1       0.445  13.856 -63.644  1.00  0.00     0.041 C 
HETATM   19  C   UNL     1       0.343  15.253 -63.765  1.00  0.00     0.011 C 
HETATM   20  O   UNL     1       1.126  13.653 -60.011  1.00  0.00    -0.338 OA
HETATM   21  C   UNL     1       1.945  20.062 -61.591  1.00  0.00     0.310 C 
ENDROOT
BRANCH   1  22
HETATM   22  C   UNL     1      -0.543  16.236 -56.176  1.00  0.00     0.061 C 
HETATM   23  C   UNL     1       0.931  15.888 -55.845  1.00  0.00     0.046 C 
BRANCH  22  24
HETATM   24  C   UNL     1      -1.021  17.502 -55.429  1.00  0.00     0.037 C 
BRANCH  24  25
HETATM   25  C   UNL     1      -2.545  17.718 -55.315  1.00  0.00    -0.002 C 
HETATM   26  C   UNL     1      -3.303  17.847 -56.629  1.00  0.00     0.005 C 
ENDBRANCH  24  25
ENDBRANCH  22  24
BRANCH  22  27
HETATM   27  O   UNL     1      -1.304  15.119 -55.674  1.00  0.00    -0.390 OA
HETATM   28  H   UNL     1      -1.451  14.488 -56.398  1.00  0.00     0.210 HD
ENDBRANCH  22  27
ENDBRANCH   1  22
BRANCH   6  29
HETATM   29  O   UNL     1      -1.054  13.781 -57.941  1.00  0.00    -0.378 OA
HETATM   30  C   UNL     1      -2.320  13.267 -58.326  1.00  0.00     0.203 C 
ENDBRANCH   6  29
BRANCH  17  31
HETATM   31  O   UNL     1       0.654  11.879 -62.270  1.00  0.00    -0.276 OA
BRANCH  31  32
HETATM   32  C   UNL     1       1.796  11.121 -62.019  1.00  0.00     0.260 C 
HETATM   33  O   UNL     1       2.712  11.073 -62.831  1.00  0.00    -0.265 OA
HETATM   34  C   UNL     1       1.863  10.398 -60.701  1.00  0.00     0.126 C 
ENDBRANCH  31  32
ENDBRANCH  17  31
TORSDOF 7
ENDMDL
MODEL 2
REMARK VINA RESULT:      -8.6      1.565      2.212
REMARK  7 active torsions:
REMARK  status: ('A' for Active; 'I' for Inactive)
REMARK    1  A    between atoms: C_2  and  C_3 
REMARK    2  A    between atoms: C_3  and  C_4 
REMARK    3  A    between atoms: C_4  and  O_33 
REMARK    4  A    between atoms: C_4  and  C_6 
REMARK    5  A    between atoms: C_11  and  O_31 
REMARK    6  A    between atoms: C_22  and  O_25 
REMARK    7  A    between atoms: O_25  and  C_26 
ROOT
HETATM    1  C   UNL     1      -1.377  16.456 -57.847  1.00  0.00     0.062 C 
HETATM    2  C   UNL     1      -0.800  17.344 -59.059  1.00  0.00     0.028 C 
HETATM    3  C   UNL     1      -0.368  16.391 -60.234  1.00  0.00     0.024 C 
HETATM    4  C   UNL     1      -1.584  15.441 -60.355  1.00  0.00    -0.015 C 
HETATM    5  C   UNL     1      -1.785  14.624 -59.301  1.00  0.00     0.011 C 
HETATM    6  C   UNL     1      -0.932  14.934 -58.066  1.00  0.00     0.112 C 
HETATM    7  C   UNL     1       0.593  14.822 -58.453  1.00  0.00     0.182 C 
HETATM    8  C   UNL     1       0.869  15.618 -59.738  1.00  0.00     0.035 C 
HETATM    9  C   UNL     1       2.085  16.615 -59.569  1.00  0.00     0.048 C 
HETATM   10  C   UNL     1       2.167  17.885 -60.529  1.00  0.00     0.273 C 
HETATM   11  N   UNL     1       0.977  18.166 -61.423  1.00  0.00     0.090 N 
HETATM   12  C   UNL     1       0.261  16.886 -61.611  1.00  0.00     0.240 C 
HETATM   13  C   UNL     1       0.094  15.798 -62.730  1.00  0.00     0.076 C 
HETATM   14  C   UNL     1       0.642  14.474 -62.109  1.00  0.00    -0.046 C 
HETATM   15  C   UNL     1       1.011  14.458 -60.727  1.00  0.00    -0.003 C 
HETATM   16  C   UNL     1       1.109  13.277 -60.030  1.00  0.00     0.111 C 
HETATM   17  C   UNL     1       1.022  12.077 -60.708  1.00  0.00     0.113 C 
HETATM   18  C   UNL     1       0.841  12.063 -62.100  1.00  0.00     0.041 C 
HETATM   19  C   UNL     1       0.619  13.262 -62.800  1.00  0.00     0.011 C 
HETATM   20  O   UNL     1       1.047  13.442 -58.671  1.00  0.00    -0.338 OA
HETATM   21  C   UNL     1       1.438  18.715 -62.707  1.00  0.00     0.310 C 
ENDROOT
BRANCH   1  22
HETATM   22  C   UNL     1      -1.364  17.083 -56.411  1.00  0.00     0.061 C 
HETATM   23  C   UNL     1      -2.797  17.496 -55.987  1.00  0.00     0.046 C 
BRANCH  22  24
HETATM   24  C   UNL     1      -0.668  16.218 -55.337  1.00  0.00     0.037 C 
BRANCH  24  25
HETATM   25  C   UNL     1       0.645  16.763 -54.736  1.00  0.00    -0.002 C 
HETATM   26  C   UNL     1       0.540  17.376 -53.347  1.00  0.00     0.005 C 
ENDBRANCH  24  25
ENDBRANCH  22  24
BRANCH  22  27
HETATM   27  O   UNL     1      -0.639  18.326 -56.509  1.00  0.00    -0.390 OA
HETATM   28  H   UNL     1      -0.016  18.270 -57.253  1.00  0.00     0.210 HD
ENDBRANCH  22  27
ENDBRANCH   1  22
BRANCH   6  29
HETATM   29  O   UNL     1      -1.391  14.078 -57.027  1.00  0.00    -0.378 OA
HETATM   30  C   UNL     1      -2.710  13.561 -57.105  1.00  0.00     0.203 C 
ENDBRANCH   6  29
BRANCH  17  31
HETATM   31  O   UNL     1       1.057  10.860 -60.014  1.00  0.00    -0.276 OA
BRANCH  31  32
HETATM   32  C   UNL     1      -0.124  10.211 -59.663  1.00  0.00     0.260 C 
HETATM   33  O   UNL     1      -0.280   9.018 -59.889  1.00  0.00    -0.265 OA
HETATM   34  C   UNL     1      -1.178  11.034 -58.971  1.00  0.00     0.126 C 
ENDBRANCH  31  32
ENDBRANCH  17  31
TORSDOF 7
ENDMDL
MODEL 3
REMARK VINA RESULT:      -7.6      2.629      4.945
REMARK  7 active torsions:
REMARK  status: ('A' for Active; 'I' for Inactive)
REMARK    1  A    between atoms: C_2  and  C_3 
REMARK    2  A    between atoms: C_3  and  C_4 
REMARK    3  A    between atoms: C_4  and  O_33 
REMARK    4  A    between atoms: C_4  and  C_6 
REMARK    5  A    between atoms: C_11  and  O_31 
REMARK    6  A    between atoms: C_22  and  O_25 
REMARK    7  A    between atoms: O_25  and  C_26 
ROOT
HETATM    1  C   UNL     1       0.440  15.750 -57.018  1.00  0.00     0.062 C 
HETATM    2  C   UNL     1       0.003  14.205 -57.131  1.00  0.00     0.028 C 
HETATM    3  C   UNL     1       0.155  13.736 -58.626  1.00  0.00     0.024 C 
HETATM    4  C   UNL     1       1.558  14.273 -59.001  1.00  0.00    -0.015 C 
HETATM    5  C   UNL     1       1.669  15.615 -59.045  1.00  0.00     0.011 C 
HETATM    6  C   UNL     1       0.468  16.387 -58.487  1.00  0.00     0.112 C 
HETATM    7  C   UNL     1      -0.818  16.002 -59.315  1.00  0.00     0.182 C 
HETATM    8  C   UNL     1      -0.932  14.474 -59.429  1.00  0.00     0.035 C 
HETATM    9  C   UNL     1      -2.361  13.951 -58.993  1.00  0.00     0.048 C 
HETATM   10  C   UNL     1      -2.500  12.442 -58.502  1.00  0.00     0.273 C 
HETATM   11  N   UNL     1      -1.226  11.648 -58.302  1.00  0.00     0.090 N 
HETATM   12  C   UNL     1      -0.186  12.272 -59.150  1.00  0.00     0.240 C 
HETATM   13  C   UNL     1       0.542  11.975 -60.508  1.00  0.00     0.076 C 
HETATM   14  C   UNL     1       0.200  13.183 -61.437  1.00  0.00    -0.046 C 
HETATM   15  C   UNL     1      -0.508  14.299 -60.889  1.00  0.00    -0.003 C 
HETATM   16  C   UNL     1      -0.488  15.527 -61.507  1.00  0.00     0.111 C 
HETATM   17  C   UNL     1       0.076  15.650 -62.760  1.00  0.00     0.113 C 
HETATM   18  C   UNL     1       0.621  14.527 -63.404  1.00  0.00     0.041 C 
HETATM   19  C   UNL     1       0.712  13.297 -62.730  1.00  0.00     0.011 C 
HETATM   20  O   UNL     1      -0.835  16.559 -60.674  1.00  0.00    -0.338 OA
HETATM   21  C   UNL     1      -1.449  10.243 -58.678  1.00  0.00     0.310 C 
ENDROOT
BRANCH   1  22
HETATM   22  C   UNL     1      -0.115  16.580 -55.810  1.00  0.00     0.061 C 
HETATM   23  C   UNL     1      -1.516  16.063 -55.395  1.00  0.00     0.046 C 
BRANCH  22  24
HETATM   24  C   UNL     1       0.846  16.683 -54.605  1.00  0.00     0.037 C 
BRANCH  24  25
HETATM   25  C   UNL     1       0.307  17.370 -53.332  1.00  0.00    -0.002 C 
HETATM   26  C   UNL     1       1.354  17.858 -52.342  1.00  0.00     0.005 C 
ENDBRANCH  24  25
ENDBRANCH  22  24
BRANCH  22  27
HETATM   27  O   UNL     1      -0.349  17.916 -56.299  1.00  0.00    -0.390 OA
HETATM   28  H   UNL     1      -1.057  18.324 -55.773  1.00  0.00     0.210 HD
ENDBRANCH  22  27
ENDBRANCH   1  22
BRANCH   6  29
HETATM   29  O   UNL     1       0.833  17.761 -58.477  1.00  0.00    -0.378 OA
HETATM   30  C   UNL     1       2.001  18.160 -59.179  1.00  0.00     0.203 C 
ENDBRANCH   6  29
BRANCH  17  31
HETATM   31  O   UNL     1       0.165  16.901 -63.385  1.00  0.00    -0.276 OA
BRANCH  31  32
HETATM   32  C   UNL     1       0.978  17.901 -62.855  1.00  0.00     0.260 C 
HETATM   33  O   UNL     1       2.113  17.653 -62.469  1.00  0.00    -0.265 OA
HETATM   34  C   UNL     1       0.409  19.294 -62.810  1.00  0.00     0.126 C 
ENDBRANCH  31  32
ENDBRANCH  17  31
TORSDOF 7
ENDMDL
MODEL 4
REMARK VINA RESULT:      -7.3      2.085      5.026
REMARK  7 active torsions:
REMARK  status: ('A' for Active; 'I' for Inactive)
REMARK    1  A    between atoms: C_2  and  C_3 
REMARK    2  A    between atoms: C_3  and  C_4 
REMARK    3  A    between atoms: C_4  and  O_33 
REMARK    4  A    between atoms: C_4  and  C_6 
REMARK    5  A    between atoms: C_11  and  O_31 
REMARK    6  A    between atoms: C_22  and  O_25 
REMARK    7  A    between atoms: O_25  and  C_26 
ROOT
HETATM    1  C   UNL     1       1.509  18.045 -60.485  1.00  0.00     0.062 C 
HETATM    2  C   UNL     1       1.191  18.038 -58.907  1.00  0.00     0.028 C 
HETATM    3  C   UNL     1       1.153  16.550 -58.397  1.00  0.00     0.024 C 
HETATM    4  C   UNL     1       2.433  15.950 -59.028  1.00  0.00    -0.015 C 
HETATM    5  C   UNL     1       2.424  15.857 -60.373  1.00  0.00     0.011 C 
HETATM    6  C   UNL     1       1.262  16.575 -61.068  1.00  0.00     0.112 C 
HETATM    7  C   UNL     1      -0.099  15.965 -60.553  1.00  0.00     0.182 C 
HETATM    8  C   UNL     1      -0.101  15.906 -59.018  1.00  0.00     0.035 C 
HETATM    9  C   UNL     1      -1.398  16.569 -58.400  1.00  0.00     0.048 C 
HETATM   10  C   UNL     1      -1.335  17.112 -56.903  1.00  0.00     0.273 C 
HETATM   11  N   UNL     1       0.016  17.131 -56.220  1.00  0.00     0.090 N 
HETATM   12  C   UNL     1       0.859  16.119 -56.892  1.00  0.00     0.240 C 
HETATM   13  C   UNL     1       1.395  14.672 -56.605  1.00  0.00     0.076 C 
HETATM   14  C   UNL     1       0.817  13.779 -57.748  1.00  0.00    -0.046 C 
HETATM   15  C   UNL     1       0.110  14.402 -58.823  1.00  0.00    -0.003 C 
HETATM   16  C   UNL     1      -0.066  13.760 -60.026  1.00  0.00     0.111 C 
HETATM   17  C   UNL     1       0.289  12.432 -60.148  1.00  0.00     0.113 C 
HETATM   18  C   UNL     1       0.821  11.739 -59.049  1.00  0.00     0.041 C 
HETATM   19  C   UNL     1       1.115  12.420 -57.854  1.00  0.00     0.011 C 
HETATM   20  O   UNL     1      -0.368  14.612 -61.057  1.00  0.00    -0.338 OA
HETATM   21  C   UNL     1      -0.144  16.829 -54.789  1.00  0.00     0.310 C 
ENDROOT
BRANCH   1  22
HETATM   22  C   UNL     1       1.078  19.304 -61.311  1.00  0.00     0.061 C 
HETATM   23  C   UNL     1      -0.003  20.111 -60.546  1.00  0.00     0.046 C 
BRANCH  22  24
HETATM   24  C   UNL     1       2.246  20.200 -61.779  1.00  0.00     0.037 C 
BRANCH  24  25
HETATM   25  C   UNL     1       3.673  19.755 -61.391  1.00  0.00    -0.002 C 
HETATM   26  C   UNL     1       4.300  20.478 -60.208  1.00  0.00     0.005 C 
ENDBRANCH  24  25
ENDBRANCH  22  24
BRANCH  22  27
HETATM   27  O   UNL     1       0.403  18.815 -62.488  1.00  0.00    -0.390 OA
HETATM   28  H   UNL     1       0.416  17.844 -62.477  1.00  0.00     0.210 HD
ENDBRANCH  22  27
ENDBRANCH   1  22
BRANCH   6  29
HETATM   29  O   UNL     1       1.508  16.496 -62.466  1.00  0.00    -0.378 OA
HETATM   30  C   UNL     1       0.618  15.738 -63.271  1.00  0.00     0.203 C 
ENDBRANCH   6  29
BRANCH  17  31
HETATM   31  O   UNL     1       0.178  11.771 -61.378  1.00  0.00    -0.276 OA
BRANCH  31  32
HETATM   32  C   UNL     1       1.242  11.764 -62.277  1.00  0.00     0.260 C 
HETATM   33  O   UNL     1       1.192  12.405 -63.320  1.00  0.00    -0.265 OA
HETATM   34  C   UNL     1       2.459  10.965 -61.892  1.00  0.00     0.126 C 
ENDBRANCH  31  32
ENDBRANCH  17  31
TORSDOF 7
ENDMDL
MODEL 5
REMARK VINA RESULT:      -6.7     14.718     17.332
REMARK  7 active torsions:
REMARK  status: ('A' for Active; 'I' for Inactive)
REMARK    1  A    between atoms: C_2  and  C_3 
REMARK    2  A    between atoms: C_3  and  C_4 
REMARK    3  A    between atoms: C_4  and  O_33 
REMARK    4  A    between atoms: C_4  and  C_6 
REMARK    5  A    between atoms: C_11  and  O_31 
REMARK    6  A    between atoms: C_22  and  O_25 
REMARK    7  A    between atoms: O_25  and  C_26 
ROOT
HETATM    1  C   UNL     1      13.312   3.490 -57.557  1.00  0.00     0.062 C 
HETATM    2  C   UNL     1      13.106   3.991 -59.073  1.00  0.00     0.028 C 
HETATM    3  C   UNL     1      11.569   3.987 -59.410  1.00  0.00     0.024 C 
HETATM    4  C   UNL     1      10.956   4.688 -58.172  1.00  0.00    -0.015 C 
HETATM    5  C   UNL     1      11.059   4.005 -57.014  1.00  0.00     0.011 C 
HETATM    6  C   UNL     1      11.969   2.773 -57.063  1.00  0.00     0.112 C 
HETATM    7  C   UNL     1      11.413   1.767 -58.143  1.00  0.00     0.182 C 
HETATM    8  C   UNL     1      11.134   2.511 -59.459  1.00  0.00     0.035 C 
HETATM    9  C   UNL     1      11.813   1.799 -60.698  1.00  0.00     0.048 C 
HETATM   10  C   UNL     1      12.126   2.669 -61.996  1.00  0.00     0.273 C 
HETATM   11  N   UNL     1      11.928   4.167 -61.902  1.00  0.00     0.090 N 
HETATM   12  C   UNL     1      10.953   4.411 -60.816  1.00  0.00     0.240 C 
HETATM   13  C   UNL     1       9.439   4.797 -60.676  1.00  0.00     0.076 C 
HETATM   14  C   UNL     1       8.773   3.607 -59.914  1.00  0.00    -0.046 C 
HETATM   15  C   UNL     1       9.605   2.564 -59.398  1.00  0.00    -0.003 C 
HETATM   16  C   UNL     1       9.162   1.727 -58.402  1.00  0.00     0.111 C 
HETATM   17  C   UNL     1       7.839   1.775 -58.011  1.00  0.00     0.113 C 
HETATM   18  C   UNL     1       6.950   2.669 -58.631  1.00  0.00     0.041 C 
HETATM   19  C   UNL     1       7.423   3.609 -59.563  1.00  0.00     0.011 C 
HETATM   20  O   UNL     1      10.176   1.088 -57.738  1.00  0.00    -0.338 OA
HETATM   21  C   UNL     1      11.438   4.687 -63.188  1.00  0.00     0.310 C 
ENDROOT
BRANCH   1  22
HETATM   22  C   UNL     1      14.710   2.901 -57.166  1.00  0.00     0.061 C 
HETATM   23  C   UNL     1      14.861   1.456 -57.710  1.00  0.00     0.046 C 
BRANCH  22  24
HETATM   24  C   UNL     1      15.914   3.792 -57.546  1.00  0.00     0.037 C 
BRANCH  24  25
HETATM   25  C   UNL     1      15.941   5.222 -56.966  1.00  0.00    -0.002 C 
HETATM   26  C   UNL     1      16.313   6.331 -57.940  1.00  0.00     0.005 C 
ENDBRANCH  24  25
ENDBRANCH  22  24
BRANCH  22  27
HETATM   27  O   UNL     1      14.710   2.752 -55.732  1.00  0.00    -0.390 OA
HETATM   28  H   UNL     1      14.133   3.430 -55.345  1.00  0.00     0.210 HD
ENDBRANCH  22  27
ENDBRANCH   1  22
BRANCH   6  29
HETATM   29  O   UNL     1      12.071   2.286 -55.731  1.00  0.00    -0.378 OA
HETATM   30  C   UNL     1      11.077   2.664 -54.791  1.00  0.00     0.203 C 
ENDBRANCH   6  29
BRANCH  17  31
HETATM   31  O   UNL     1       7.374   0.977 -56.957  1.00  0.00    -0.276 OA
BRANCH  31  32
HETATM   32  C   UNL     1       7.675   1.304 -55.636  1.00  0.00     0.260 C 
HETATM   33  O   UNL     1       8.229   0.499 -54.898  1.00  0.00    -0.265 OA
HETATM   34  C   UNL     1       7.319   2.692 -55.176  1.00  0.00     0.126 C 
ENDBRANCH  31  32
ENDBRANCH  17  31
TORSDOF 7
ENDMDL
MODEL 6
REMARK VINA RESULT:      -6.6     14.213     16.418
REMARK  7 active torsions:
REMARK  status: ('A' for Active; 'I' for Inactive)
REMARK    1  A    between atoms: C_2  and  C_3 
REMARK    2  A    between atoms: C_3  and  C_4 
REMARK    3  A    between atoms: C_4  and  O_33 
REMARK    4  A    between atoms: C_4  and  C_6 
REMARK    5  A    between atoms: C_11  and  O_31 
REMARK    6  A    between atoms: C_22  and  O_25 
REMARK    7  A    between atoms: O_25  and  C_26 
ROOT
HETATM    1  C   UNL     1     -12.941  15.513 -67.087  1.00  0.00     0.062 C 
HETATM    2  C   UNL     1     -13.060  16.402 -65.750  1.00  0.00     0.028 C 
HETATM    3  C   UNL     1     -13.285  15.449 -64.518  1.00  0.00     0.024 C 
HETATM    4  C   UNL     1     -12.212  14.356 -64.742  1.00  0.00    -0.015 C 
HETATM    5  C   UNL     1     -12.402  13.575 -65.825  1.00  0.00     0.011 C 
HETATM    6  C   UNL     1     -13.503  14.045 -66.782  1.00  0.00     0.112 C 
HETATM    7  C   UNL     1     -14.874  14.096 -66.002  1.00  0.00     0.182 C 
HETATM    8  C   UNL     1     -14.697  14.854 -64.677  1.00  0.00     0.035 C 
HETATM    9  C   UNL     1     -15.777  15.996 -64.498  1.00  0.00     0.048 C 
HETATM   10  C   UNL     1     -15.440  17.217 -63.531  1.00  0.00     0.273 C 
HETATM   11  N   UNL     1     -14.031  17.310 -62.984  1.00  0.00     0.090 N 
HETATM   12  C   UNL     1     -13.460  15.946 -63.015  1.00  0.00     0.240 C 
HETATM   13  C   UNL     1     -13.145  14.791 -61.999  1.00  0.00     0.076 C 
HETATM   14  C   UNL     1     -14.002  13.574 -62.473  1.00  0.00    -0.046 C 
HETATM   15  C   UNL     1     -14.721  13.671 -63.706  1.00  0.00    -0.003 C 
HETATM   16  C   UNL     1     -15.149  12.547 -64.370  1.00  0.00     0.111 C 
HETATM   17  C   UNL     1     -15.041  11.313 -63.760  1.00  0.00     0.113 C 
HETATM   18  C   UNL     1     -14.503  11.208 -62.468  1.00  0.00     0.041 C 
HETATM   19  C   UNL     1     -13.953  12.335 -61.833  1.00  0.00     0.011 C 
HETATM   20  O   UNL     1     -15.427  12.771 -65.693  1.00  0.00    -0.338 OA
HETATM   21  C   UNL     1     -14.063  17.845 -61.614  1.00  0.00     0.310 C 
ENDROOT
BRANCH   1  22
HETATM   22  C   UNL     1     -13.252  16.207 -68.456  1.00  0.00     0.061 C 
HETATM   23  C   UNL     1     -13.614  17.699 -68.237  1.00  0.00     0.046 C 
BRANCH  22  24
HETATM   24  C   UNL     1     -12.159  16.028 -69.532  1.00  0.00     0.037 C 
BRANCH  24  25
HETATM   25  C   UNL     1     -12.631  15.806 -70.985  1.00  0.00    -0.002 C 
HETATM   26  C   UNL     1     -13.029  17.055 -71.758  1.00  0.00     0.005 C 
ENDBRANCH  24  25
ENDBRANCH  22  24
BRANCH  22  27
HETATM   27  O   UNL     1     -14.464  15.608 -68.958  1.00  0.00    -0.390 OA
HETATM   28  H   UNL     1     -14.920  15.160 -68.227  1.00  0.00     0.210 HD
ENDBRANCH  22  27
ENDBRANCH   1  22
BRANCH   6  29
HETATM   29  O   UNL     1     -13.448  13.194 -67.919  1.00  0.00    -0.378 OA
HETATM   30  C   UNL     1     -12.210  12.582 -68.251  1.00  0.00     0.203 C 
ENDBRANCH   6  29
BRANCH  17  31
HETATM   31  O   UNL     1     -15.413  10.145 -64.439  1.00  0.00    -0.276 OA
BRANCH  31  32
HETATM   32  C   UNL     1     -15.944   9.061 -63.743  1.00  0.00     0.260 C 
HETATM   33  O   UNL     1     -17.078   9.102 -63.282  1.00  0.00    -0.265 OA
HETATM   34  C   UNL     1     -15.076   7.838 -63.613  1.00  0.00     0.126 C 
ENDBRANCH  31  32
ENDBRANCH  17  31
TORSDOF 7
ENDMDL
MODEL 7
REMARK VINA RESULT:      -6.5     15.855     19.431
REMARK  7 active torsions:
REMARK  status: ('A' for Active; 'I' for Inactive)
REMARK    1  A    between atoms: C_2  and  C_3 
REMARK    2  A    between atoms: C_3  and  C_4 
REMARK    3  A    between atoms: C_4  and  O_33 
REMARK    4  A    between atoms: C_4  and  C_6 
REMARK    5  A    between atoms: C_11  and  O_31 
REMARK    6  A    between atoms: C_22  and  O_25 
REMARK    7  A    between atoms: O_25  and  C_26 
ROOT
HETATM    1  C   UNL     1      13.652   5.203 -61.205  1.00  0.00     0.062 C 
HETATM    2  C   UNL     1      13.709   4.841 -59.638  1.00  0.00     0.028 C 
HETATM    3  C   UNL     1      15.087   5.321 -59.050  1.00  0.00     0.024 C 
HETATM    4  C   UNL     1      15.209   6.757 -59.615  1.00  0.00    -0.015 C 
HETATM    5  C   UNL     1      15.353   6.839 -60.953  1.00  0.00     0.011 C 
HETATM    6  C   UNL     1      15.135   5.527 -61.714  1.00  0.00     0.112 C 
HETATM    7  C   UNL     1      16.174   4.457 -61.201  1.00  0.00     0.182 C 
HETATM    8  C   UNL     1      16.166   4.410 -59.666  1.00  0.00     0.035 C 
HETATM    9  C   UNL     1      15.993   2.936 -59.117  1.00  0.00     0.048 C 
HETATM   10  C   UNL     1      15.403   2.736 -57.651  1.00  0.00     0.273 C 
HETATM   11  N   UNL     1      14.867   3.958 -56.936  1.00  0.00     0.090 N 
HETATM   12  C   UNL     1      15.532   5.137 -57.531  1.00  0.00     0.240 C 
HETATM   13  C   UNL     1      16.674   6.146 -57.153  1.00  0.00     0.076 C 
HETATM   14  C   UNL     1      17.763   5.978 -58.260  1.00  0.00    -0.046 C 
HETATM   15  C   UNL     1      17.482   5.140 -59.385  1.00  0.00    -0.003 C 
HETATM   16  C   UNL     1      18.194   5.259 -60.556  1.00  0.00     0.111 C 
HETATM   17  C   UNL     1      19.307   6.074 -60.596  1.00  0.00     0.113 C 
HETATM   18  C   UNL     1      19.714   6.772 -59.449  1.00  0.00     0.041 C 
HETATM   19  C   UNL     1      18.925   6.750 -58.286  1.00  0.00     0.011 C 
HETATM   20  O   UNL     1      17.552   4.715 -61.638  1.00  0.00    -0.338 OA
HETATM   21  C   UNL     1      15.148   3.857 -55.495  1.00  0.00     0.310 C 
ENDROOT
BRANCH   1  22
HETATM   22  C   UNL     1      12.669   4.383 -62.109  1.00  0.00     0.061 C 
HETATM   23  C   UNL     1      13.086   2.889 -62.146  1.00  0.00     0.046 C 
BRANCH  22  24
HETATM   24  C   UNL     1      11.175   4.560 -61.762  1.00  0.00     0.037 C 
BRANCH  24  25
HETATM   25  C   UNL     1      10.471   3.380 -61.058  1.00  0.00    -0.002 C 
HETATM   26  C   UNL     1       8.950   3.385 -61.105  1.00  0.00     0.005 C 
ENDBRANCH  24  25
ENDBRANCH  22  24
BRANCH  22  27
HETATM   27  O   UNL     1      12.864   4.848 -63.460  1.00  0.00    -0.390 OA
HETATM   28  H   UNL     1      12.624   4.137 -64.076  1.00  0.00     0.210 HD
ENDBRANCH  22  27
ENDBRANCH   1  22
BRANCH   6  29
HETATM   29  O   UNL     1      15.177   5.845 -63.099  1.00  0.00    -0.378 OA
HETATM   30  C   UNL     1      15.726   7.093 -63.494  1.00  0.00     0.203 C 
ENDBRANCH   6  29
BRANCH  17  31
HETATM   31  O   UNL     1      20.014   6.261 -61.792  1.00  0.00    -0.276 OA
BRANCH  31  32
HETATM   32  C   UNL     1      19.531   7.127 -62.771  1.00  0.00     0.260 C 
HETATM   33  O   UNL     1      19.496   6.791 -63.948  1.00  0.00    -0.265 OA
HETATM   34  C   UNL     1      19.031   8.470 -62.311  1.00  0.00     0.126 C 
ENDBRANCH  31  32
ENDBRANCH  17  31
TORSDOF 7
ENDMDL
MODEL 8
REMARK VINA RESULT:      -6.4     17.497     19.382
REMARK  7 active torsions:
REMARK  status: ('A' for Active; 'I' for Inactive)
REMARK    1  A    between atoms: C_2  and  C_3 
REMARK    2  A    between atoms: C_3  and  C_4 
REMARK    3  A    between atoms: C_4  and  O_33 
REMARK    4  A    between atoms: C_4  and  C_6 
REMARK    5  A    between atoms: C_11  and  O_31 
REMARK    6  A    between atoms: C_22  and  O_25 
REMARK    7  A    between atoms: O_25  and  C_26 
ROOT
HETATM    1  C   UNL     1     -13.930  25.305 -53.056  1.00  0.00     0.062 C 
HETATM    2  C   UNL     1     -13.351  26.550 -53.896  1.00  0.00     0.028 C 
HETATM    3  C   UNL     1     -12.030  27.061 -53.212  1.00  0.00     0.024 C 
HETATM    4  C   UNL     1     -11.254  25.744 -52.963  1.00  0.00    -0.015 C 
HETATM    5  C   UNL     1     -11.810  24.908 -52.064  1.00  0.00     0.011 C 
HETATM    6  C   UNL     1     -13.228  25.282 -51.618  1.00  0.00     0.112 C 
HETATM    7  C   UNL     1     -13.198  26.715 -50.960  1.00  0.00     0.182 C 
HETATM    8  C   UNL     1     -12.447  27.697 -51.872  1.00  0.00     0.035 C 
HETATM    9  C   UNL     1     -13.284  29.011 -52.147  1.00  0.00     0.048 C 
HETATM   10  C   UNL     1     -12.965  29.854 -53.461  1.00  0.00     0.273 C 
HETATM   11  N   UNL     1     -12.009  29.250 -54.468  1.00  0.00     0.090 N 
HETATM   12  C   UNL     1     -11.158  28.286 -53.737  1.00  0.00     0.240 C 
HETATM   13  C   UNL     1      -9.691  28.212 -53.184  1.00  0.00     0.076 C 
HETATM   14  C   UNL     1      -9.836  28.025 -51.640  1.00  0.00    -0.046 C 
HETATM   15  C   UNL     1     -11.138  27.819 -51.087  1.00  0.00    -0.003 C 
HETATM   16  C   UNL     1     -11.302  27.259 -49.842  1.00  0.00     0.111 C 
HETATM   17  C   UNL     1     -10.200  27.052 -49.038  1.00  0.00     0.113 C 
HETATM   18  C   UNL     1      -8.920  27.415 -49.486  1.00  0.00     0.041 C 
HETATM   19  C   UNL     1      -8.731  27.875 -50.801  1.00  0.00     0.011 C 
HETATM   20  O   UNL     1     -12.557  26.746 -49.639  1.00  0.00    -0.338 OA
HETATM   21  C   UNL     1     -11.201  30.313 -55.088  1.00  0.00     0.310 C 
ENDROOT
BRANCH   1  22
HETATM   22  C   UNL     1     -15.456  24.977 -53.194  1.00  0.00     0.061 C 
HETATM   23  C   UNL     1     -16.207  26.160 -53.859  1.00  0.00     0.046 C 
BRANCH  22  24
HETATM   24  C   UNL     1     -15.766  23.631 -53.885  1.00  0.00     0.037 C 
BRANCH  24  25
HETATM   25  C   UNL     1     -14.803  22.458 -53.606  1.00  0.00    -0.002 C 
HETATM   26  C   UNL     1     -15.143  21.137 -54.281  1.00  0.00     0.005 C 
ENDBRANCH  24  25
ENDBRANCH  22  24
BRANCH  22  27
HETATM   27  O   UNL     1     -15.988  24.915 -51.855  1.00  0.00    -0.390 OA
HETATM   28  H   UNL     1     -15.272  24.683 -51.242  1.00  0.00     0.210 HD
ENDBRANCH  22  27
ENDBRANCH   1  22
BRANCH   6  29
HETATM   29  O   UNL     1     -13.695  24.215 -50.802  1.00  0.00    -0.378 OA
HETATM   30  C   UNL     1     -12.829  23.117 -50.556  1.00  0.00     0.203 C 
ENDBRANCH   6  29
BRANCH  17  31
HETATM   31  O   UNL     1     -10.331  26.427 -47.791  1.00  0.00    -0.276 OA
BRANCH  31  32
HETATM   32  C   UNL     1      -9.977  27.099 -46.623  1.00  0.00     0.260 C 
HETATM   33  O   UNL     1      -9.111  26.657 -45.878  1.00  0.00    -0.265 OA
HETATM   34  C   UNL     1     -10.682  28.398 -46.339  1.00  0.00     0.126 C 
ENDBRANCH  31  32
ENDBRANCH  17  31
TORSDOF 7
ENDMDL
MODEL 9
REMARK VINA RESULT:      -6.3     15.453     17.244
REMARK  7 active torsions:
REMARK  status: ('A' for Active; 'I' for Inactive)
REMARK    1  A    between atoms: C_2  and  C_3 
REMARK    2  A    between atoms: C_3  and  C_4 
REMARK    3  A    between atoms: C_4  and  O_33 
REMARK    4  A    between atoms: C_4  and  C_6 
REMARK    5  A    between atoms: C_11  and  O_31 
REMARK    6  A    between atoms: C_22  and  O_25 
REMARK    7  A    between atoms: O_25  and  C_26 
ROOT
HETATM    1  C   UNL     1     -12.903  14.368 -65.934  1.00  0.00     0.062 C 
HETATM    2  C   UNL     1     -13.043  12.811 -66.317  1.00  0.00     0.028 C 
HETATM    3  C   UNL     1     -13.343  12.686 -67.856  1.00  0.00     0.024 C 
HETATM    4  C   UNL     1     -12.297  13.643 -68.478  1.00  0.00    -0.015 C 
HETATM    5  C   UNL     1     -12.471  14.949 -68.195  1.00  0.00     0.011 C 
HETATM    6  C   UNL     1     -13.522  15.248 -67.119  1.00  0.00     0.112 C 
HETATM    7  C   UNL     1     -14.917  14.688 -67.596  1.00  0.00     0.182 C 
HETATM    8  C   UNL     1     -14.766  13.235 -68.072  1.00  0.00     0.035 C 
HETATM    9  C   UNL     1     -15.816  12.272 -67.384  1.00  0.00     0.048 C 
HETATM   10  C   UNL     1     -15.476  10.718 -67.293  1.00  0.00     0.273 C 
HETATM   11  N   UNL     1     -14.086  10.278 -67.702  1.00  0.00     0.090 N 
HETATM   12  C   UNL     1     -13.557  11.306 -68.624  1.00  0.00     0.240 C 
HETATM   13  C   UNL     1     -13.315  11.475 -70.165  1.00  0.00     0.076 C 
HETATM   14  C   UNL     1     -14.191  12.695 -70.594  1.00  0.00    -0.046 C 
HETATM   15  C   UNL     1     -14.861  13.455 -69.584  1.00  0.00    -0.003 C 
HETATM   16  C   UNL     1     -15.300  14.734 -69.829  1.00  0.00     0.111 C 
HETATM   17  C   UNL     1     -15.252  15.235 -71.115  1.00  0.00     0.113 C 
HETATM   18  C   UNL     1     -14.765  14.442 -72.165  1.00  0.00     0.041 C 
HETATM   19  C   UNL     1     -14.204  13.180 -71.902  1.00  0.00     0.011 C 
HETATM   20  O   UNL     1     -15.522  15.460 -68.689  1.00  0.00    -0.338 OA
HETATM   21  C   UNL     1     -14.151   8.960 -68.352  1.00  0.00     0.310 C 
ENDROOT
BRANCH   1  22
HETATM   22  C   UNL     1     -13.143  14.777 -64.441  1.00  0.00     0.061 C 
HETATM   23  C   UNL     1     -14.632  14.579 -64.056  1.00  0.00     0.046 C 
BRANCH  22  24
HETATM   24  C   UNL     1     -12.188  14.107 -63.428  1.00  0.00     0.037 C 
BRANCH  24  25
HETATM   25  C   UNL     1     -12.343  14.505 -61.945  1.00  0.00    -0.002 C 
HETATM   26  C   UNL     1     -12.582  13.363 -60.967  1.00  0.00     0.005 C 
ENDBRANCH  24  25
ENDBRANCH  22  24
BRANCH  22  27
HETATM   27  O   UNL     1     -12.933  16.202 -64.364  1.00  0.00    -0.390 OA
HETATM   28  H   UNL     1     -13.586  16.584 -63.755  1.00  0.00     0.210 HD
ENDBRANCH  22  27
ENDBRANCH   1  22
BRANCH   6  29
HETATM   29  O   UNL     1     -13.451  16.643 -66.855  1.00  0.00    -0.378 OA
HETATM   30  C   UNL     1     -13.011  17.510 -67.889  1.00  0.00     0.203 C 
ENDBRANCH   6  29
BRANCH  17  31
HETATM   31  O   UNL     1     -15.635  16.557 -71.382  1.00  0.00    -0.276 OA
BRANCH  31  32
HETATM   32  C   UNL     1     -14.751  17.438 -72.000  1.00  0.00     0.260 C 
HETATM   33  O   UNL     1     -15.127  18.186 -72.894  1.00  0.00    -0.265 OA
HETATM   34  C   UNL     1     -13.332  17.449 -71.498  1.00  0.00     0.126 C 
ENDBRANCH  31  32
ENDBRANCH  17  31
TORSDOF 7
ENDMDL
MODEL 10
REMARK VINA RESULT:      -6.2     16.719     19.166
REMARK  7 active torsions:
REMARK  status: ('A' for Active; 'I' for Inactive)
REMARK    1  A    between atoms: C_2  and  C_3 
REMARK    2  A    between atoms: C_3  and  C_4 
REMARK    3  A    between atoms: C_4  and  O_33 
REMARK    4  A    between atoms: C_4  and  C_6 
REMARK    5  A    between atoms: C_11  and  O_31 
REMARK    6  A    between atoms: C_22  and  O_25 
REMARK    7  A    between atoms: O_25  and  C_26 
ROOT
HETATM    1  C   UNL     1      14.193  18.133 -49.154  1.00  0.00     0.062 C 
HETATM    2  C   UNL     1      14.381  19.692 -48.802  1.00  0.00     0.028 C 
HETATM    3  C   UNL     1      13.980  19.931 -47.299  1.00  0.00     0.024 C 
HETATM    4  C   UNL     1      14.718  18.781 -46.571  1.00  0.00    -0.015 C 
HETATM    5  C   UNL     1      14.275  17.540 -46.856  1.00  0.00     0.011 C 
HETATM    6  C   UNL     1      13.285  17.454 -48.023  1.00  0.00     0.112 C 
HETATM    7  C   UNL     1      12.018  18.333 -47.688  1.00  0.00     0.182 C 
HETATM    8  C   UNL     1      12.456  19.727 -47.214  1.00  0.00     0.035 C 
HETATM    9  C   UNL     1      11.721  20.882 -48.008  1.00  0.00     0.048 C 
HETATM   10  C   UNL     1      12.416  22.314 -48.083  1.00  0.00     0.273 C 
HETATM   11  N   UNL     1      13.827  22.438 -47.548  1.00  0.00     0.090 N 
HETATM   12  C   UNL     1      14.021  21.347 -46.570  1.00  0.00     0.240 C 
HETATM   13  C   UNL     1      14.078  21.176 -45.010  1.00  0.00     0.076 C 
HETATM   14  C   UNL     1      12.910  20.202 -44.655  1.00  0.00    -0.046 C 
HETATM   15  C   UNL     1      12.177  19.583 -45.716  1.00  0.00    -0.003 C 
HETATM   16  C   UNL     1      11.436  18.446 -45.500  1.00  0.00     0.111 C 
HETATM   17  C   UNL     1      11.251  17.988 -44.211  1.00  0.00     0.113 C 
HETATM   18  C   UNL     1      11.811  18.683 -43.127  1.00  0.00     0.041 C 
HETATM   19  C   UNL     1      12.668  19.775 -43.349  1.00  0.00     0.011 C 
HETATM   20  O   UNL     1      11.156  17.754 -46.649  1.00  0.00    -0.338 OA
HETATM   21  C   UNL     1      14.008  23.757 -46.921  1.00  0.00     0.310 C 
ENDROOT
BRANCH   1  22
HETATM   22  C   UNL     1      14.001  17.741 -50.659  1.00  0.00     0.061 C 
HETATM   23  C   UNL     1      14.154  18.989 -51.567  1.00  0.00     0.046 C 
BRANCH  22  24
HETATM   24  C   UNL     1      14.882  16.565 -51.136  1.00  0.00     0.037 C 
BRANCH  24  25
HETATM   25  C   UNL     1      16.366  16.581 -50.713  1.00  0.00    -0.002 C 
HETATM   26  C   UNL     1      16.939  15.254 -50.235  1.00  0.00     0.005 C 
ENDBRANCH  24  25
ENDBRANCH  22  24
BRANCH  22  27
HETATM   27  O   UNL     1      12.623  17.347 -50.811  1.00  0.00    -0.390 OA
HETATM   28  H   UNL     1      12.531  16.831 -51.629  1.00  0.00     0.210 HD
ENDBRANCH  22  27
ENDBRANCH   1  22
BRANCH   6  29
HETATM   29  O   UNL     1      13.056  16.072 -48.266  1.00  0.00    -0.378 OA
HETATM   30  C   UNL     1      14.016  15.133 -47.805  1.00  0.00     0.203 C 
ENDBRANCH   6  29
BRANCH  17  31
HETATM   31  O   UNL     1      10.552  16.798 -43.967  1.00  0.00    -0.276 OA
BRANCH  31  32
HETATM   32  C   UNL     1       9.181  16.722 -44.203  1.00  0.00     0.260 C 
HETATM   33  O   UNL     1       8.730  15.984 -45.069  1.00  0.00    -0.265 OA
HETATM   34  C   UNL     1       8.288  17.559 -43.326  1.00  0.00     0.126 C 
ENDBRANCH  31  32
ENDBRANCH  17  31
TORSDOF 7
ENDMDL
