MODEL 1
REMARK VINA RESULT:      -9.0      0.000      0.000
REMARK  7 active torsions:
REMARK  status: ('A' for Active; 'I' for Inactive)
REMARK    1  A    between atoms: C_2  and  C_3 
REMARK       I    between atoms: C_3  and  N_5 
REMARK    2  A    between atoms: N_5  and  C_6 
REMARK    3  A    between atoms: N_5  and  C_21 
REMARK    4  A    between atoms: N_9  and  C_12 
REMARK    5  A    between atoms: C_12  and  C_13 
REMARK    6  A    between atoms: C_13  and  C_14 
REMARK    7  A    between atoms: C_13  and  O_20 
ROOT
HETATM    1  C   UNL     1      -0.598  14.744 -60.227  1.00  0.00     0.096 C 
HETATM    2  C   UNL     1       0.853  14.809 -60.750  1.00  0.00     0.056 C 
HETATM    3  C   UNL     1       1.534  16.117 -60.381  1.00  0.00     0.274 C 
HETATM    4  N   UNL     1       0.819  17.288 -60.882  1.00  0.00     0.091 N 
HETATM    5  C   UNL     1      -0.564  17.326 -60.402  1.00  0.00     0.274 C 
HETATM    6  C   UNL     1      -1.308  16.021 -60.716  1.00  0.00     0.056 C 
ENDROOT
BRANCH   1   7
HETATM    7  N   UNL     1      -0.665  14.323 -58.785  1.00  0.00    -0.313 N 
HETATM    8  C   UNL     1      -0.424  12.989 -58.381  1.00  0.00     0.224 C 
HETATM    9  O   UNL     1      -0.359  12.630 -57.202  1.00  0.00    -0.273 OA
BRANCH   8  10
HETATM   10  C   UNL     1      -0.341  11.893 -59.436  1.00  0.00     0.099 C 
HETATM   11  C   UNL     1       1.034  11.257 -59.456  1.00  0.00     0.014 C 
ENDBRANCH   8  10
BRANCH   7  12
HETATM   12  C   UNL     1      -0.765  15.307 -57.736  1.00  0.00     0.037 A 
HETATM   13  C   UNL     1       0.383  15.765 -57.069  1.00  0.00     0.030 A 
HETATM   14  C   UNL     1       0.300  16.711 -56.039  1.00  0.00     0.002 A 
HETATM   15  C   UNL     1      -0.935  17.229 -55.667  1.00  0.00     0.000 A 
HETATM   16  C   UNL     1      -2.088  16.756 -56.283  1.00  0.00     0.002 A 
HETATM   17  C   UNL     1      -2.003  15.779 -57.284  1.00  0.00     0.030 A 
ENDBRANCH   7  12
ENDBRANCH   1   7
BRANCH   4  18
HETATM   18  C   UNL     1       1.538  18.560 -60.601  1.00  0.00     0.308 C 
BRANCH  18  19
HETATM   19  C   UNL     1       2.600  18.649 -59.452  1.00  0.00     0.179 C 
BRANCH  19  20
HETATM   20  C   UNL     1       3.723  19.644 -59.687  1.00  0.00    -0.028 A 
HETATM   21  C   UNL     1       4.842  19.648 -58.840  1.00  0.00     0.010 A 
HETATM   22  C   UNL     1       5.976  20.397 -59.158  1.00  0.00     0.001 A 
HETATM   23  C   UNL     1       5.984  21.192 -60.300  1.00  0.00     0.000 A 
HETATM   24  C   UNL     1       4.847  21.267 -61.104  1.00  0.00     0.001 A 
HETATM   25  C   UNL     1       3.719  20.505 -60.794  1.00  0.00     0.010 A 
ENDBRANCH  19  20
BRANCH  19  26
HETATM   26  O   UNL     1       1.937  19.003 -58.233  1.00  0.00    -0.389 OA
HETATM   27  H   UNL     1       2.616  19.022 -57.536  1.00  0.00     0.210 HD
ENDBRANCH  19  26
ENDBRANCH  18  19
ENDBRANCH   4  18
TORSDOF 7
ENDMDL
MODEL 2
REMARK VINA RESULT:      -8.7      1.774      2.335
REMARK  7 active torsions:
REMARK  status: ('A' for Active; 'I' for Inactive)
REMARK    1  A    between atoms: C_2  and  C_3 
REMARK       I    between atoms: C_3  and  N_5 
REMARK    2  A    between atoms: N_5  and  C_6 
REMARK    3  A    between atoms: N_5  and  C_21 
REMARK    4  A    between atoms: N_9  and  C_12 
REMARK    5  A    between atoms: C_12  and  C_13 
REMARK    6  A    between atoms: C_13  and  C_14 
REMARK    7  A    between atoms: C_13  and  O_20 
ROOT
HETATM    1  C   UNL     1       0.615  13.465 -58.520  1.00  0.00     0.096 C 
HETATM    2  C   UNL     1       1.570  14.036 -57.450  1.00  0.00     0.056 C 
HETATM    3  C   UNL     1       1.938  15.484 -57.728  1.00  0.00     0.274 C 
HETATM    4  N   UNL     1       2.561  15.668 -59.036  1.00  0.00     0.091 N 
HETATM    5  C   UNL     1       1.703  15.185 -60.119  1.00  0.00     0.274 C 
HETATM    6  C   UNL     1       1.268  13.731 -59.890  1.00  0.00     0.056 C 
ENDROOT
BRANCH   1   7
HETATM    7  N   UNL     1      -0.819  13.835 -58.258  1.00  0.00    -0.313 N 
HETATM    8  C   UNL     1      -1.827  12.859 -58.087  1.00  0.00     0.224 C 
HETATM    9  O   UNL     1      -2.988  13.119 -57.760  1.00  0.00    -0.273 OA
BRANCH   8  10
HETATM   10  C   UNL     1      -1.520  11.403 -58.419  1.00  0.00     0.099 C 
HETATM   11  C   UNL     1      -2.775  10.660 -58.831  1.00  0.00     0.014 C 
ENDBRANCH   8  10
BRANCH   7  12
HETATM   12  C   UNL     1      -1.183  15.198 -57.958  1.00  0.00     0.037 A 
HETATM   13  C   UNL     1      -1.517  15.580 -56.649  1.00  0.00     0.030 A 
HETATM   14  C   UNL     1      -1.885  16.897 -56.345  1.00  0.00     0.002 A 
HETATM   15  C   UNL     1      -1.912  17.861 -57.346  1.00  0.00     0.000 A 
HETATM   16  C   UNL     1      -1.630  17.494 -58.656  1.00  0.00     0.002 A 
HETATM   17  C   UNL     1      -1.302  16.167 -58.962  1.00  0.00     0.030 A 
ENDBRANCH   7  12
ENDBRANCH   1   7
BRANCH   4  18
HETATM   18  C   UNL     1       3.007  17.069 -59.265  1.00  0.00     0.308 C 
BRANCH  18  19
HETATM   19  C   UNL     1       4.529  17.422 -59.384  1.00  0.00     0.179 C 
BRANCH  19  20
HETATM   20  C   UNL     1       4.832  18.867 -59.739  1.00  0.00    -0.028 A 
HETATM   21  C   UNL     1       4.814  19.851 -58.738  1.00  0.00     0.010 A 
HETATM   22  C   UNL     1       5.295  21.136 -58.993  1.00  0.00     0.001 A 
HETATM   23  C   UNL     1       5.750  21.467 -60.266  1.00  0.00     0.000 A 
HETATM   24  C   UNL     1       5.691  20.526 -61.293  1.00  0.00     0.001 A 
HETATM   25  C   UNL     1       5.224  19.236 -61.034  1.00  0.00     0.010 A 
ENDBRANCH  19  20
BRANCH  19  26
HETATM   26  O   UNL     1       5.174  17.123 -58.139  1.00  0.00    -0.389 OA
HETATM   27  H   UNL     1       6.044  17.559 -58.159  1.00  0.00     0.210 HD
ENDBRANCH  19  26
ENDBRANCH  18  19
ENDBRANCH   4  18
TORSDOF 7
ENDMDL
MODEL 3
REMARK VINA RESULT:      -8.4      1.471      3.574
REMARK  7 active torsions:
REMARK  status: ('A' for Active; 'I' for Inactive)
REMARK    1  A    between atoms: C_2  and  C_3 
REMARK       I    between atoms: C_3  and  N_5 
REMARK    2  A    between atoms: N_5  and  C_6 
REMARK    3  A    between atoms: N_5  and  C_21 
REMARK    4  A    between atoms: N_9  and  C_12 
REMARK    5  A    between atoms: C_12  and  C_13 
REMARK    6  A    between atoms: C_13  and  C_14 
REMARK    7  A    between atoms: C_13  and  O_20 
ROOT
HETATM    1  C   UNL     1      -1.347  16.447 -59.490  1.00  0.00     0.096 C 
HETATM    2  C   UNL     1      -0.687  15.955 -60.796  1.00  0.00     0.056 C 
HETATM    3  C   UNL     1       0.750  16.435 -60.925  1.00  0.00     0.274 C 
HETATM    4  N   UNL     1       0.867  17.890 -60.879  1.00  0.00     0.091 N 
HETATM    5  C   UNL     1       0.296  18.442 -59.649  1.00  0.00     0.274 C 
HETATM    6  C   UNL     1      -1.151  17.975 -59.438  1.00  0.00     0.056 C 
ENDROOT
BRANCH   1   7
HETATM    7  N   UNL     1      -0.996  15.579 -58.314  1.00  0.00    -0.313 N 
HETATM    8  C   UNL     1      -1.195  16.006 -56.980  1.00  0.00     0.224 C 
HETATM    9  O   UNL     1      -1.027  15.284 -55.995  1.00  0.00    -0.273 OA
BRANCH   8  10
HETATM   10  C   UNL     1      -1.536  17.467 -56.708  1.00  0.00     0.099 C 
HETATM   11  C   UNL     1      -2.944  17.607 -56.164  1.00  0.00     0.014 C 
ENDBRANCH   8  10
BRANCH   7  12
HETATM   12  C   UNL     1      -0.644  14.194 -58.502  1.00  0.00     0.037 A 
HETATM   13  C   UNL     1      -1.638  13.208 -58.606  1.00  0.00     0.030 A 
HETATM   14  C   UNL     1      -1.311  11.856 -58.775  1.00  0.00     0.002 A 
HETATM   15  C   UNL     1       0.021  11.467 -58.858  1.00  0.00     0.000 A 
HETATM   16  C   UNL     1       1.022  12.421 -58.712  1.00  0.00     0.002 A 
HETATM   17  C   UNL     1       0.689  13.766 -58.501  1.00  0.00     0.030 A 
ENDBRANCH   7  12
ENDBRANCH   1   7
BRANCH   4  18
HETATM   18  C   UNL     1       2.261  18.359 -61.101  1.00  0.00     0.308 C 
BRANCH  18  19
HETATM   19  C   UNL     1       2.676  19.836 -60.782  1.00  0.00     0.179 C 
BRANCH  19  20
HETATM   20  C   UNL     1       4.114  20.020 -60.329  1.00  0.00    -0.028 A 
HETATM   21  C   UNL     1       5.035  20.662 -61.171  1.00  0.00     0.010 A 
HETATM   22  C   UNL     1       6.295  21.033 -60.699  1.00  0.00     0.001 A 
HETATM   23  C   UNL     1       6.667  20.721 -59.395  1.00  0.00     0.000 A 
HETATM   24  C   UNL     1       5.795  20.006 -58.575  1.00  0.00     0.001 A 
HETATM   25  C   UNL     1       4.529  19.648 -59.042  1.00  0.00     0.010 A 
ENDBRANCH  19  20
BRANCH  19  26
HETATM   26  O   UNL     1       2.469  20.639 -61.951  1.00  0.00    -0.389 OA
HETATM   27  H   UNL     1       2.853  20.152 -62.701  1.00  0.00     0.210 HD
ENDBRANCH  19  26
ENDBRANCH  18  19
ENDBRANCH   4  18
TORSDOF 7
ENDMDL
MODEL 4
REMARK VINA RESULT:      -8.2      1.896      2.744
REMARK  7 active torsions:
REMARK  status: ('A' for Active; 'I' for Inactive)
REMARK    1  A    between atoms: C_2  and  C_3 
REMARK       I    between atoms: C_3  and  N_5 
REMARK    2  A    between atoms: N_5  and  C_6 
REMARK    3  A    between atoms: N_5  and  C_21 
REMARK    4  A    between atoms: N_9  and  C_12 
REMARK    5  A    between atoms: C_12  and  C_13 
REMARK    6  A    between atoms: C_13  and  C_14 
REMARK    7  A    between atoms: C_13  and  O_20 
ROOT
HETATM    1  C   UNL     1       0.836  14.055 -58.999  1.00  0.00     0.096 C 
HETATM    2  C   UNL     1       1.794  14.731 -57.996  1.00  0.00     0.056 C 
HETATM    3  C   UNL     1       1.873  16.234 -58.206  1.00  0.00     0.274 C 
HETATM    4  N   UNL     1       2.303  16.594 -59.556  1.00  0.00     0.091 N 
HETATM    5  C   UNL     1       1.423  16.022 -60.576  1.00  0.00     0.274 C 
HETATM    6  C   UNL     1       1.273  14.504 -60.408  1.00  0.00     0.056 C 
ENDROOT
BRANCH   1   7
HETATM    7  N   UNL     1      -0.601  14.148 -58.566  1.00  0.00    -0.313 N 
HETATM    8  C   UNL     1      -1.420  13.004 -58.432  1.00  0.00     0.224 C 
HETATM    9  O   UNL     1      -2.565  13.028 -57.972  1.00  0.00    -0.273 OA
BRANCH   8  10
HETATM   10  C   UNL     1      -0.929  11.666 -58.973  1.00  0.00     0.099 C 
HETATM   11  C   UNL     1      -1.969  10.582 -58.777  1.00  0.00     0.014 C 
ENDBRANCH   8  10
BRANCH   7  12
HETATM   12  C   UNL     1      -1.137  15.389 -58.063  1.00  0.00     0.037 A 
HETATM   13  C   UNL     1      -1.416  16.455 -58.932  1.00  0.00     0.030 A 
HETATM   14  C   UNL     1      -1.926  17.671 -58.456  1.00  0.00     0.002 A 
HETATM   15  C   UNL     1      -2.179  17.836 -57.100  1.00  0.00     0.000 A 
HETATM   16  C   UNL     1      -1.867  16.809 -56.216  1.00  0.00     0.002 A 
HETATM   17  C   UNL     1      -1.319  15.611 -56.693  1.00  0.00     0.030 A 
ENDBRANCH   7  12
ENDBRANCH   1   7
BRANCH   4  18
HETATM   18  C   UNL     1       2.471  18.062 -59.728  1.00  0.00     0.308 C 
BRANCH  18  19
HETATM   19  C   UNL     1       3.133  18.651 -61.022  1.00  0.00     0.179 C 
BRANCH  19  20
HETATM   20  C   UNL     1       2.457  19.888 -61.587  1.00  0.00    -0.028 A 
HETATM   21  C   UNL     1       3.139  21.115 -61.597  1.00  0.00     0.010 A 
HETATM   22  C   UNL     1       2.631  22.208 -62.299  1.00  0.00     0.001 A 
HETATM   23  C   UNL     1       1.409  22.103 -62.957  1.00  0.00     0.000 A 
HETATM   24  C   UNL     1       0.678  20.918 -62.883  1.00  0.00     0.001 A 
HETATM   25  C   UNL     1       1.194  19.820 -62.193  1.00  0.00     0.010 A 
ENDBRANCH  19  20
BRANCH  19  26
HETATM   26  O   UNL     1       4.498  18.979 -60.737  1.00  0.00    -0.389 OA
HETATM   27  H   UNL     1       4.495  19.846 -60.296  1.00  0.00     0.210 HD
ENDBRANCH  19  26
ENDBRANCH  18  19
ENDBRANCH   4  18
TORSDOF 7
ENDMDL
MODEL 5
REMARK VINA RESULT:      -8.1      2.531      7.195
REMARK  7 active torsions:
REMARK  status: ('A' for Active; 'I' for Inactive)
REMARK    1  A    between atoms: C_2  and  C_3 
REMARK       I    between atoms: C_3  and  N_5 
REMARK    2  A    between atoms: N_5  and  C_6 
REMARK    3  A    between atoms: N_5  and  C_21 
REMARK    4  A    between atoms: N_9  and  C_12 
REMARK    5  A    between atoms: C_12  and  C_13 
REMARK    6  A    between atoms: C_13  and  C_14 
REMARK    7  A    between atoms: C_13  and  O_20 
ROOT
HETATM    1  C   UNL     1       1.326  18.869 -60.037  1.00  0.00     0.096 C 
HETATM    2  C   UNL     1       2.427  17.855 -59.660  1.00  0.00     0.056 C 
HETATM    3  C   UNL     1       1.853  16.599 -59.025  1.00  0.00     0.274 C 
HETATM    4  N   UNL     1       1.066  16.880 -57.827  1.00  0.00     0.091 N 
HETATM    5  C   UNL     1      -0.030  17.810 -58.103  1.00  0.00     0.274 C 
HETATM    6  C   UNL     1       0.474  19.096 -58.773  1.00  0.00     0.056 C 
ENDROOT
BRANCH   1   7
HETATM    7  N   UNL     1       0.683  18.546 -61.357  1.00  0.00    -0.313 N 
HETATM    8  C   UNL     1       0.584  19.500 -62.397  1.00  0.00     0.224 C 
HETATM    9  O   UNL     1       0.167  19.242 -63.529  1.00  0.00    -0.273 OA
BRANCH   8  10
HETATM   10  C   UNL     1       0.902  20.961 -62.102  1.00  0.00     0.099 C 
HETATM   11  C   UNL     1       0.297  21.874 -63.149  1.00  0.00     0.014 C 
ENDBRANCH   8  10
BRANCH   7  12
HETATM   12  C   UNL     1       0.337  17.187 -61.694  1.00  0.00     0.037 A 
HETATM   13  C   UNL     1       1.049  16.488 -62.681  1.00  0.00     0.030 A 
HETATM   14  C   UNL     1       0.715  15.172 -63.027  1.00  0.00     0.002 A 
HETATM   15  C   UNL     1      -0.331  14.525 -62.379  1.00  0.00     0.000 A 
HETATM   16  C   UNL     1      -1.077  15.214 -61.431  1.00  0.00     0.002 A 
HETATM   17  C   UNL     1      -0.766  16.544 -61.118  1.00  0.00     0.030 A 
ENDBRANCH   7  12
ENDBRANCH   1   7
BRANCH   4  18
HETATM   18  C   UNL     1       0.586  15.642 -57.155  1.00  0.00     0.308 C 
BRANCH  18  19
HETATM   19  C   UNL     1      -0.712  14.912 -57.643  1.00  0.00     0.179 C 
BRANCH  19  20
HETATM   20  C   UNL     1      -0.501  13.502 -58.167  1.00  0.00    -0.028 A 
HETATM   21  C   UNL     1      -1.556  12.576 -58.125  1.00  0.00     0.010 A 
HETATM   22  C   UNL     1      -1.457  11.353 -58.791  1.00  0.00     0.001 A 
HETATM   23  C   UNL     1      -0.284  11.020 -59.461  1.00  0.00     0.000 A 
HETATM   24  C   UNL     1       0.803  11.892 -59.435  1.00  0.00     0.001 A 
HETATM   25  C   UNL     1       0.699  13.122 -58.783  1.00  0.00     0.010 A 
ENDBRANCH  19  20
BRANCH  19  26
HETATM   26  O   UNL     1      -1.646  14.850 -56.557  1.00  0.00    -0.389 OA
HETATM   27  H   UNL     1      -2.438  15.342 -56.837  1.00  0.00     0.210 HD
ENDBRANCH  19  26
ENDBRANCH  18  19
ENDBRANCH   4  18
TORSDOF 7
ENDMDL
MODEL 6
REMARK VINA RESULT:      -8.1      2.263      3.209
REMARK  7 active torsions:
REMARK  status: ('A' for Active; 'I' for Inactive)
REMARK    1  A    between atoms: C_2  and  C_3 
REMARK       I    between atoms: C_3  and  N_5 
REMARK    2  A    between atoms: N_5  and  C_6 
REMARK    3  A    between atoms: N_5  and  C_21 
REMARK    4  A    between atoms: N_9  and  C_12 
REMARK    5  A    between atoms: C_12  and  C_13 
REMARK    6  A    between atoms: C_13  and  C_14 
REMARK    7  A    between atoms: C_13  and  O_20 
ROOT
HETATM    1  C   UNL     1      -0.573  15.660 -61.711  1.00  0.00     0.096 C 
HETATM    2  C   UNL     1       0.432  16.538 -62.486  1.00  0.00     0.056 C 
HETATM    3  C   UNL     1       1.374  17.283 -61.555  1.00  0.00     0.274 C 
HETATM    4  N   UNL     1       0.670  18.136 -60.601  1.00  0.00     0.091 N 
HETATM    5  C   UNL     1      -0.284  17.375 -59.793  1.00  0.00     0.274 C 
HETATM    6  C   UNL     1      -1.254  16.571 -60.670  1.00  0.00     0.056 C 
ENDROOT
BRANCH   1   7
HETATM    7  N   UNL     1       0.016  14.335 -61.314  1.00  0.00    -0.313 N 
HETATM    8  C   UNL     1       0.589  13.455 -62.261  1.00  0.00     0.224 C 
HETATM    9  O   UNL     1       1.181  12.414 -61.962  1.00  0.00    -0.273 OA
BRANCH   8  10
HETATM   10  C   UNL     1       0.390  13.725 -63.748  1.00  0.00     0.099 C 
HETATM   11  C   UNL     1      -0.722  12.866 -64.316  1.00  0.00     0.014 C 
ENDBRANCH   8  10
BRANCH   7  12
HETATM   12  C   UNL     1       0.213  14.005 -59.925  1.00  0.00     0.037 A 
HETATM   13  C   UNL     1      -0.759  13.285 -59.212  1.00  0.00     0.030 A 
HETATM   14  C   UNL     1      -0.587  12.968 -57.858  1.00  0.00     0.002 A 
HETATM   15  C   UNL     1       0.572  13.355 -57.195  1.00  0.00     0.000 A 
HETATM   16  C   UNL     1       1.526  14.108 -57.869  1.00  0.00     0.002 A 
HETATM   17  C   UNL     1       1.330  14.457 -59.211  1.00  0.00     0.030 A 
ENDBRANCH   7  12
ENDBRANCH   1   7
BRANCH   4  18
HETATM   18  C   UNL     1       1.597  18.937 -59.756  1.00  0.00     0.308 C 
BRANCH  18  19
HETATM   19  C   UNL     1       3.118  19.055 -60.118  1.00  0.00     0.179 C 
BRANCH  19  20
HETATM   20  C   UNL     1       3.498  20.291 -60.915  1.00  0.00    -0.028 A 
HETATM   21  C   UNL     1       2.534  20.935 -61.707  1.00  0.00     0.010 A 
HETATM   22  C   UNL     1       2.796  22.184 -62.273  1.00  0.00     0.001 A 
HETATM   23  C   UNL     1       4.041  22.779 -62.096  1.00  0.00     0.000 A 
HETATM   24  C   UNL     1       5.037  22.111 -61.385  1.00  0.00     0.001 A 
HETATM   25  C   UNL     1       4.771  20.869 -60.806  1.00  0.00     0.010 A 
ENDBRANCH  19  20
BRANCH  19  26
HETATM   26  O   UNL     1       3.884  19.050 -58.907  1.00  0.00    -0.389 OA
HETATM   27  H   UNL     1       4.175  18.133 -58.760  1.00  0.00     0.210 HD
ENDBRANCH  19  26
ENDBRANCH  18  19
ENDBRANCH   4  18
TORSDOF 7
ENDMDL
MODEL 7
REMARK VINA RESULT:      -7.8      2.117      7.385
REMARK  7 active torsions:
REMARK  status: ('A' for Active; 'I' for Inactive)
REMARK    1  A    between atoms: C_2  and  C_3 
REMARK       I    between atoms: C_3  and  N_5 
REMARK    2  A    between atoms: N_5  and  C_6 
REMARK    3  A    between atoms: N_5  and  C_21 
REMARK    4  A    between atoms: N_9  and  C_12 
REMARK    5  A    between atoms: C_12  and  C_13 
REMARK    6  A    between atoms: C_13  and  C_14 
REMARK    7  A    between atoms: C_13  and  O_20 
ROOT
HETATM    1  C   UNL     1       1.791  18.784 -59.114  1.00  0.00     0.096 C 
HETATM    2  C   UNL     1       2.156  17.334 -58.732  1.00  0.00     0.056 C 
HETATM    3  C   UNL     1       1.292  16.317 -59.460  1.00  0.00     0.274 C 
HETATM    4  N   UNL     1      -0.135  16.506 -59.210  1.00  0.00     0.091 N 
HETATM    5  C   UNL     1      -0.578  17.850 -59.581  1.00  0.00     0.274 C 
HETATM    6  C   UNL     1       0.271  18.933 -58.902  1.00  0.00     0.056 C 
ENDROOT
BRANCH   1   7
HETATM    7  N   UNL     1       2.441  19.215 -60.399  1.00  0.00    -0.313 N 
HETATM    8  C   UNL     1       3.825  19.042 -60.636  1.00  0.00     0.224 C 
HETATM    9  O   UNL     1       4.372  19.278 -61.716  1.00  0.00    -0.273 OA
BRANCH   8  10
HETATM   10  C   UNL     1       4.735  18.644 -59.480  1.00  0.00     0.099 C 
HETATM   11  C   UNL     1       5.364  19.862 -58.835  1.00  0.00     0.014 C 
ENDBRANCH   8  10
BRANCH   7  12
HETATM   12  C   UNL     1       1.640  19.624 -61.526  1.00  0.00     0.037 A 
HETATM   13  C   UNL     1       1.021  18.672 -62.351  1.00  0.00     0.030 A 
HETATM   14  C   UNL     1       0.250  19.054 -63.457  1.00  0.00     0.002 A 
HETATM   15  C   UNL     1       0.074  20.401 -63.750  1.00  0.00     0.000 A 
HETATM   16  C   UNL     1       0.716  21.359 -62.975  1.00  0.00     0.002 A 
HETATM   17  C   UNL     1       1.519  20.970 -61.894  1.00  0.00     0.030 A 
ENDBRANCH   7  12
ENDBRANCH   1   7
BRANCH   4  18
HETATM   18  C   UNL     1      -0.970  15.452 -59.847  1.00  0.00     0.308 C 
BRANCH  18  19
HETATM   19  C   UNL     1      -1.193  14.067 -59.146  1.00  0.00     0.179 C 
BRANCH  19  20
HETATM   20  C   UNL     1      -0.332  12.932 -59.671  1.00  0.00    -0.028 A 
HETATM   21  C   UNL     1      -0.424  11.658 -59.089  1.00  0.00     0.010 A 
HETATM   22  C   UNL     1       0.190  10.555 -59.686  1.00  0.00     0.001 A 
HETATM   23  C   UNL     1       0.946  10.723 -60.842  1.00  0.00     0.000 A 
HETATM   24  C   UNL     1       1.119  11.997 -61.381  1.00  0.00     0.001 A 
HETATM   25  C   UNL     1       0.493  13.097 -60.794  1.00  0.00     0.010 A 
ENDBRANCH  19  20
BRANCH  19  26
HETATM   26  O   UNL     1      -0.937  14.210 -57.743  1.00  0.00    -0.389 OA
HETATM   27  H   UNL     1      -0.327  14.961 -57.642  1.00  0.00     0.210 HD
ENDBRANCH  19  26
ENDBRANCH  18  19
ENDBRANCH   4  18
TORSDOF 7
ENDMDL
MODEL 8
REMARK VINA RESULT:      -7.7      1.719      3.964
REMARK  7 active torsions:
REMARK  status: ('A' for Active; 'I' for Inactive)
REMARK    1  A    between atoms: C_2  and  C_3 
REMARK       I    between atoms: C_3  and  N_5 
REMARK    2  A    between atoms: N_5  and  C_6 
REMARK    3  A    between atoms: N_5  and  C_21 
REMARK    4  A    between atoms: N_9  and  C_12 
REMARK    5  A    between atoms: C_12  and  C_13 
REMARK    6  A    between atoms: C_13  and  C_14 
REMARK    7  A    between atoms: C_13  and  O_20 
ROOT
HETATM    1  C   UNL     1       0.973  15.639 -57.607  1.00  0.00     0.096 C 
HETATM    2  C   UNL     1       0.697  17.149 -57.776  1.00  0.00     0.056 C 
HETATM    3  C   UNL     1       1.189  17.672 -59.115  1.00  0.00     0.274 C 
HETATM    4  N   UNL     1       2.618  17.446 -59.321  1.00  0.00     0.091 N 
HETATM    5  C   UNL     1       2.965  16.029 -59.214  1.00  0.00     0.274 C 
HETATM    6  C   UNL     1       2.473  15.424 -57.892  1.00  0.00     0.056 C 
ENDROOT
BRANCH   1   7
HETATM    7  N   UNL     1      -0.073  14.791 -58.274  1.00  0.00    -0.313 N 
HETATM    8  C   UNL     1      -1.382  14.664 -57.753  1.00  0.00     0.224 C 
HETATM    9  O   UNL     1      -2.297  14.072 -58.330  1.00  0.00    -0.273 OA
BRANCH   8  10
HETATM   10  C   UNL     1      -1.681  15.188 -56.353  1.00  0.00     0.099 C 
HETATM   11  C   UNL     1      -2.382  16.530 -56.410  1.00  0.00     0.014 C 
ENDBRANCH   8  10
BRANCH   7  12
HETATM   12  C   UNL     1       0.152  14.246 -59.590  1.00  0.00     0.037 A 
HETATM   13  C   UNL     1       0.753  12.988 -59.753  1.00  0.00     0.030 A 
HETATM   14  C   UNL     1       0.990  12.452 -61.026  1.00  0.00     0.002 A 
HETATM   15  C   UNL     1       0.616  13.161 -62.161  1.00  0.00     0.000 A 
HETATM   16  C   UNL     1       0.061  14.428 -62.023  1.00  0.00     0.002 A 
HETATM   17  C   UNL     1      -0.136  14.977 -60.749  1.00  0.00     0.030 A 
ENDBRANCH   7  12
ENDBRANCH   1   7
BRANCH   4  18
HETATM   18  C   UNL     1       3.114  18.044 -60.589  1.00  0.00     0.308 C 
BRANCH  18  19
HETATM   19  C   UNL     1       4.236  19.139 -60.580  1.00  0.00     0.179 C 
BRANCH  19  20
HETATM   20  C   UNL     1       3.818  20.497 -61.118  1.00  0.00    -0.028 A 
HETATM   21  C   UNL     1       4.760  21.534 -61.206  1.00  0.00     0.010 A 
HETATM   22  C   UNL     1       4.462  22.712 -61.890  1.00  0.00     0.001 A 
HETATM   23  C   UNL     1       3.200  22.889 -62.451  1.00  0.00     0.000 A 
HETATM   24  C   UNL     1       2.226  21.904 -62.295  1.00  0.00     0.001 A 
HETATM   25  C   UNL     1       2.530  20.718 -61.624  1.00  0.00     0.010 A 
ENDBRANCH  19  20
BRANCH  19  26
HETATM   26  O   UNL     1       4.702  19.315 -59.236  1.00  0.00    -0.389 OA
HETATM   27  H   UNL     1       4.441  20.212 -58.961  1.00  0.00     0.210 HD
ENDBRANCH  19  26
ENDBRANCH  18  19
ENDBRANCH   4  18
TORSDOF 7
ENDMDL
MODEL 9
REMARK VINA RESULT:      -7.6      2.859      6.931
REMARK  7 active torsions:
REMARK  status: ('A' for Active; 'I' for Inactive)
REMARK    1  A    between atoms: C_2  and  C_3 
REMARK       I    between atoms: C_3  and  N_5 
REMARK    2  A    between atoms: N_5  and  C_6 
REMARK    3  A    between atoms: N_5  and  C_21 
REMARK    4  A    between atoms: N_9  and  C_12 
REMARK    5  A    between atoms: C_12  and  C_13 
REMARK    6  A    between atoms: C_13  and  C_14 
REMARK    7  A    between atoms: C_13  and  O_20 
ROOT
HETATM    1  C   UNL     1      -0.238  15.093 -57.177  1.00  0.00     0.096 C 
HETATM    2  C   UNL     1       1.112  14.448 -57.557  1.00  0.00     0.056 C 
HETATM    3  C   UNL     1       0.984  13.522 -58.756  1.00  0.00     0.274 C 
HETATM    4  N   UNL     1       0.014  12.450 -58.542  1.00  0.00     0.091 N 
HETATM    5  C   UNL     1      -1.311  12.975 -58.211  1.00  0.00     0.274 C 
HETATM    6  C   UNL     1      -1.255  13.944 -57.022  1.00  0.00     0.056 C 
ENDROOT
BRANCH   1   7
HETATM    7  N   UNL     1      -0.551  16.297 -58.021  1.00  0.00    -0.313 N 
HETATM    8  C   UNL     1      -1.142  17.461 -57.478  1.00  0.00     0.224 C 
HETATM    9  O   UNL     1      -1.310  18.507 -58.111  1.00  0.00    -0.273 OA
BRANCH   8  10
HETATM   10  C   UNL     1      -1.709  17.419 -56.064  1.00  0.00     0.099 C 
HETATM   11  C   UNL     1      -3.185  17.766 -56.056  1.00  0.00     0.014 C 
ENDBRANCH   8  10
BRANCH   7  12
HETATM   12  C   UNL     1      -0.064  16.392 -59.375  1.00  0.00     0.037 A 
HETATM   13  C   UNL     1       1.155  17.031 -59.656  1.00  0.00     0.030 A 
HETATM   14  C   UNL     1       1.635  17.143 -60.967  1.00  0.00     0.002 A 
HETATM   15  C   UNL     1       0.909  16.604 -62.023  1.00  0.00     0.000 A 
HETATM   16  C   UNL     1      -0.321  16.008 -61.772  1.00  0.00     0.002 A 
HETATM   17  C   UNL     1      -0.816  15.935 -60.463  1.00  0.00     0.030 A 
ENDBRANCH   7  12
ENDBRANCH   1   7
BRANCH   4  18
HETATM   18  C   UNL     1      -0.037  11.491 -59.679  1.00  0.00     0.308 C 
BRANCH  18  19
HETATM   19  C   UNL     1       1.139  10.490 -59.943  1.00  0.00     0.179 C 
BRANCH  19  20
HETATM   20  C   UNL     1       1.791  10.605 -61.310  1.00  0.00    -0.028 A 
HETATM   21  C   UNL     1       1.195  11.397 -62.303  1.00  0.00     0.010 A 
HETATM   22  C   UNL     1       1.876  11.692 -63.485  1.00  0.00     0.001 A 
HETATM   23  C   UNL     1       3.140  11.154 -63.710  1.00  0.00     0.000 A 
HETATM   24  C   UNL     1       3.707  10.294 -62.770  1.00  0.00     0.001 A 
HETATM   25  C   UNL     1       3.032  10.012 -61.582  1.00  0.00     0.010 A 
ENDBRANCH  19  20
BRANCH  19  26
HETATM   26  O   UNL     1       2.151  10.689 -58.947  1.00  0.00    -0.389 OA
HETATM   27  H   UNL     1       2.323  11.646 -58.906  1.00  0.00     0.210 HD
ENDBRANCH  19  26
ENDBRANCH  18  19
ENDBRANCH   4  18
TORSDOF 7
ENDMDL
MODEL 10
REMARK VINA RESULT:      -7.5      2.444      4.630
REMARK  7 active torsions:
REMARK  status: ('A' for Active; 'I' for Inactive)
REMARK    1  A    between atoms: C_2  and  C_3 
REMARK       I    between atoms: C_3  and  N_5 
REMARK    2  A    between atoms: N_5  and  C_6 
REMARK    3  A    between atoms: N_5  and  C_21 
REMARK    4  A    between atoms: N_9  and  C_12 
REMARK    5  A    between atoms: C_12  and  C_13 
REMARK    6  A    between atoms: C_13  and  C_14 
REMARK    7  A    between atoms: C_13  and  O_20 
ROOT
HETATM    1  C   UNL     1       0.860  15.106 -58.510  1.00  0.00     0.096 C 
HETATM    2  C   UNL     1       0.015  16.386 -58.333  1.00  0.00     0.056 C 
HETATM    3  C   UNL     1      -0.100  17.175 -59.627  1.00  0.00     0.274 C 
HETATM    4  N   UNL     1       1.199  17.562 -60.172  1.00  0.00     0.091 N 
HETATM    5  C   UNL     1       2.057  16.399 -60.406  1.00  0.00     0.274 C 
HETATM    6  C   UNL     1       2.197  15.536 -59.145  1.00  0.00     0.056 C 
ENDROOT
BRANCH   1   7
HETATM    7  N   UNL     1       0.059  13.970 -59.082  1.00  0.00    -0.313 N 
HETATM    8  C   UNL     1      -1.127  13.504 -58.470  1.00  0.00     0.224 C 
HETATM    9  O   UNL     1      -1.870  12.653 -58.968  1.00  0.00    -0.273 OA
BRANCH   8  10
HETATM   10  C   UNL     1      -1.481  13.984 -57.067  1.00  0.00     0.099 C 
HETATM   11  C   UNL     1      -2.868  13.523 -56.666  1.00  0.00     0.014 C 
ENDBRANCH   8  10
BRANCH   7  12
HETATM   12  C   UNL     1       0.353  13.452 -60.396  1.00  0.00     0.037 A 
HETATM   13  C   UNL     1      -0.114  14.107 -61.547  1.00  0.00     0.030 A 
HETATM   14  C   UNL     1       0.153  13.609 -62.829  1.00  0.00     0.002 A 
HETATM   15  C   UNL     1       0.906  12.451 -62.983  1.00  0.00     0.000 A 
HETATM   16  C   UNL     1       1.339  11.762 -61.856  1.00  0.00     0.002 A 
HETATM   17  C   UNL     1       1.034  12.242 -60.576  1.00  0.00     0.030 A 
ENDBRANCH   7  12
ENDBRANCH   1   7
BRANCH   4  18
HETATM   18  C   UNL     1       1.079  18.415 -61.385  1.00  0.00     0.308 C 
BRANCH  18  19
HETATM   19  C   UNL     1       2.114  19.557 -61.672  1.00  0.00     0.179 C 
BRANCH  19  20
HETATM   20  C   UNL     1       1.558  20.760 -62.414  1.00  0.00    -0.028 A 
HETATM   21  C   UNL     1       0.406  20.623 -63.204  1.00  0.00     0.010 A 
HETATM   22  C   UNL     1      -0.245  21.746 -63.718  1.00  0.00     0.001 A 
HETATM   23  C   UNL     1       0.279  23.015 -63.491  1.00  0.00     0.000 A 
HETATM   24  C   UNL     1       1.470  23.160 -62.782  1.00  0.00     0.001 A 
HETATM   25  C   UNL     1       2.112  22.038 -62.255  1.00  0.00     0.010 A 
ENDBRANCH  19  20
BRANCH  19  26
HETATM   26  O   UNL     1       2.660  20.013 -60.428  1.00  0.00    -0.389 OA
HETATM   27  H   UNL     1       3.098  19.248 -60.014  1.00  0.00     0.210 HD
ENDBRANCH  19  26
ENDBRANCH  18  19
ENDBRANCH   4  18
TORSDOF 7
ENDMDL
