MODEL 1
REMARK VINA RESULT:      -9.3      0.000      0.000
REMARK  6 active torsions:
REMARK  status: ('A' for Active; 'I' for Inactive)
REMARK    1  A    between atoms: C_2  and  C_3 
REMARK       I    between atoms: C_3  and  N_5 
REMARK    2  A    between atoms: N_5  and  C_6 
REMARK    3  A    between atoms: N_5  and  C_21 
REMARK    4  A    between atoms: N_9  and  C_12 
REMARK    5  A    between atoms: C_12  and  C_13 
REMARK    6  A    between atoms: C_13  and  C_15 
ROOT
HETATM    1  C   UNL     1      -1.305  16.437 -59.511  1.00  0.00     0.096 C 
HETATM    2  C   UNL     1      -0.680  15.895 -60.814  1.00  0.00     0.056 C 
HETATM    3  C   UNL     1       0.808  16.208 -60.899  1.00  0.00     0.274 C 
HETATM    4  N   UNL     1       1.098  17.634 -60.819  1.00  0.00     0.089 N 
HETATM    5  C   UNL     1       0.478  18.301 -59.672  1.00  0.00     0.274 C 
HETATM    6  C   UNL     1      -1.004  17.950 -59.483  1.00  0.00     0.056 C 
ENDROOT
BRANCH   1   7
HETATM    7  N   UNL     1      -0.973  15.590 -58.315  1.00  0.00    -0.313 N 
HETATM    8  C   UNL     1      -1.240  15.992 -56.993  1.00  0.00     0.224 C 
HETATM    9  O   UNL     1      -1.177  15.231 -56.021  1.00  0.00    -0.273 OA
BRANCH   8  10
HETATM   10  C   UNL     1      -1.514  17.461 -56.710  1.00  0.00     0.099 C 
HETATM   11  C   UNL     1      -2.938  17.672 -56.235  1.00  0.00     0.014 C 
ENDBRANCH   8  10
BRANCH   7  12
HETATM   12  C   UNL     1      -0.596  14.220 -58.503  1.00  0.00     0.037 A 
HETATM   13  C   UNL     1      -1.568  13.231 -58.706  1.00  0.00     0.030 A 
HETATM   14  C   UNL     1      -1.202  11.903 -58.939  1.00  0.00     0.002 A 
HETATM   15  C   UNL     1       0.143  11.543 -58.944  1.00  0.00     0.000 A 
HETATM   16  C   UNL     1       1.118  12.504 -58.679  1.00  0.00     0.002 A 
HETATM   17  C   UNL     1       0.748  13.832 -58.443  1.00  0.00     0.030 A 
ENDBRANCH   7  12
ENDBRANCH   1   7
BRANCH   4  18
HETATM   18  C   UNL     1       2.548  17.940 -60.921  1.00  0.00     0.281 C 
BRANCH  18  19
HETATM   19  C   UNL     1       3.414  18.080 -59.628  1.00  0.00     0.043 C 
HETATM   20  C   UNL     1       3.995  16.762 -59.090  1.00  0.00     0.016 C 
BRANCH  19  21
HETATM   21  C   UNL     1       4.579  19.043 -59.850  1.00  0.00    -0.053 A 
HETATM   22  C   UNL     1       5.238  19.653 -58.772  1.00  0.00     0.007 A 
HETATM   23  C   UNL     1       6.218  20.620 -58.995  1.00  0.00     0.001 A 
HETATM   24  C   UNL     1       6.565  20.975 -60.296  1.00  0.00     0.000 A 
HETATM   25  C   UNL     1       5.939  20.356 -61.376  1.00  0.00     0.001 A 
HETATM   26  C   UNL     1       4.953  19.394 -61.157  1.00  0.00     0.007 A 
ENDBRANCH  19  21
ENDBRANCH  18  19
ENDBRANCH   4  18
TORSDOF 6
ENDMDL
MODEL 2
REMARK VINA RESULT:      -9.2      1.490      3.691
REMARK  6 active torsions:
REMARK  status: ('A' for Active; 'I' for Inactive)
REMARK    1  A    between atoms: C_2  and  C_3 
REMARK       I    between atoms: C_3  and  N_5 
REMARK    2  A    between atoms: N_5  and  C_6 
REMARK    3  A    between atoms: N_5  and  C_21 
REMARK    4  A    between atoms: N_9  and  C_12 
REMARK    5  A    between atoms: C_12  and  C_13 
REMARK    6  A    between atoms: C_13  and  C_15 
ROOT
HETATM    1  C   UNL     1      -0.376  14.802 -60.291  1.00  0.00     0.096 C 
HETATM    2  C   UNL     1       0.949  15.112 -61.020  1.00  0.00     0.056 C 
HETATM    3  C   UNL     1       1.512  16.468 -60.616  1.00  0.00     0.274 C 
HETATM    4  N   UNL     1       0.591  17.568 -60.869  1.00  0.00     0.089 N 
HETATM    5  C   UNL     1      -0.748  17.359 -60.312  1.00  0.00     0.274 C 
HETATM    6  C   UNL     1      -1.330  15.971 -60.612  1.00  0.00     0.056 C 
ENDROOT
BRANCH   1   7
HETATM    7  N   UNL     1      -0.166  14.383 -58.864  1.00  0.00    -0.313 N 
HETATM    8  C   UNL     1       0.569  13.239 -58.500  1.00  0.00     0.224 C 
HETATM    9  O   UNL     1       0.933  13.000 -57.344  1.00  0.00    -0.273 OA
BRANCH   8  10
HETATM   10  C   UNL     1       0.842  12.174 -59.552  1.00  0.00     0.099 C 
HETATM   11  C   UNL     1      -0.187  11.062 -59.485  1.00  0.00     0.014 C 
ENDBRANCH   8  10
BRANCH   7  12
HETATM   12  C   UNL     1      -0.503  15.290 -57.805  1.00  0.00     0.037 A 
HETATM   13  C   UNL     1       0.467  16.136 -57.251  1.00  0.00     0.030 A 
HETATM   14  C   UNL     1       0.130  17.055 -56.254  1.00  0.00     0.002 A 
HETATM   15  C   UNL     1      -1.176  17.119 -55.778  1.00  0.00     0.000 A 
HETATM   16  C   UNL     1      -2.137  16.239 -56.275  1.00  0.00     0.002 A 
HETATM   17  C   UNL     1      -1.797  15.317 -57.270  1.00  0.00     0.030 A 
ENDBRANCH   7  12
ENDBRANCH   1   7
BRANCH   4  18
HETATM   18  C   UNL     1       1.147  18.892 -60.493  1.00  0.00     0.281 C 
BRANCH  18  19
HETATM   19  C   UNL     1       2.149  19.623 -61.444  1.00  0.00     0.043 C 
HETATM   20  C   UNL     1       1.562  20.822 -62.207  1.00  0.00     0.016 C 
BRANCH  19  21
HETATM   21  C   UNL     1       3.373  20.119 -60.675  1.00  0.00    -0.053 A 
HETATM   22  C   UNL     1       4.210  21.116 -61.200  1.00  0.00     0.007 A 
HETATM   23  C   UNL     1       5.388  21.471 -60.543  1.00  0.00     0.001 A 
HETATM   24  C   UNL     1       5.734  20.849 -59.346  1.00  0.00     0.000 A 
HETATM   25  C   UNL     1       4.898  19.878 -58.800  1.00  0.00     0.001 A 
HETATM   26  C   UNL     1       3.723  19.514 -59.458  1.00  0.00     0.007 A 
ENDBRANCH  19  21
ENDBRANCH  18  19
ENDBRANCH   4  18
TORSDOF 6
ENDMDL
MODEL 3
REMARK VINA RESULT:      -9.2      2.391      6.252
REMARK  6 active torsions:
REMARK  status: ('A' for Active; 'I' for Inactive)
REMARK    1  A    between atoms: C_2  and  C_3 
REMARK       I    between atoms: C_3  and  N_5 
REMARK    2  A    between atoms: N_5  and  C_6 
REMARK    3  A    between atoms: N_5  and  C_21 
REMARK    4  A    between atoms: N_9  and  C_12 
REMARK    5  A    between atoms: C_12  and  C_13 
REMARK    6  A    between atoms: C_13  and  C_15 
ROOT
HETATM    1  C   UNL     1      -0.633  17.741 -60.417  1.00  0.00     0.096 C 
HETATM    2  C   UNL     1      -1.477  16.453 -60.532  1.00  0.00     0.056 C 
HETATM    3  C   UNL     1      -0.621  15.249 -60.901  1.00  0.00     0.274 C 
HETATM    4  N   UNL     1       0.105  15.424 -62.152  1.00  0.00     0.089 N 
HETATM    5  C   UNL     1       0.877  16.667 -62.218  1.00  0.00     0.274 C 
HETATM    6  C   UNL     1       0.091  17.906 -61.769  1.00  0.00     0.056 C 
ENDROOT
BRANCH   1   7
HETATM    7  N   UNL     1       0.154  17.803 -59.139  1.00  0.00    -0.313 N 
HETATM    8  C   UNL     1      -0.437  17.684 -57.867  1.00  0.00     0.224 C 
HETATM    9  O   UNL     1       0.207  17.516 -56.827  1.00  0.00    -0.273 OA
BRANCH   8  10
HETATM   10  C   UNL     1      -1.939  17.882 -57.732  1.00  0.00     0.099 C 
HETATM   11  C   UNL     1      -2.443  17.360 -56.401  1.00  0.00     0.014 C 
ENDBRANCH   8  10
BRANCH   7  12
HETATM   12  C   UNL     1       1.585  17.734 -59.187  1.00  0.00     0.037 A 
HETATM   13  C   UNL     1       2.351  18.887 -59.406  1.00  0.00     0.030 A 
HETATM   14  C   UNL     1       3.747  18.830 -59.404  1.00  0.00     0.002 A 
HETATM   15  C   UNL     1       4.395  17.613 -59.210  1.00  0.00     0.000 A 
HETATM   16  C   UNL     1       3.645  16.448 -59.055  1.00  0.00     0.002 A 
HETATM   17  C   UNL     1       2.248  16.506 -59.062  1.00  0.00     0.030 A 
ENDBRANCH   7  12
ENDBRANCH   1   7
BRANCH   4  18
HETATM   18  C   UNL     1       0.924  14.242 -62.521  1.00  0.00     0.281 C 
BRANCH  18  19
HETATM   19  C   UNL     1       0.249  12.843 -62.696  1.00  0.00     0.043 C 
HETATM   20  C   UNL     1       0.078  12.384 -64.153  1.00  0.00     0.016 C 
BRANCH  19  21
HETATM   21  C   UNL     1       1.036  11.760 -61.959  1.00  0.00    -0.053 A 
HETATM   22  C   UNL     1       0.649  11.318 -60.685  1.00  0.00     0.007 A 
HETATM   23  C   UNL     1       1.445  10.417 -59.975  1.00  0.00     0.001 A 
HETATM   24  C   UNL     1       2.623   9.934 -60.537  1.00  0.00     0.000 A 
HETATM   25  C   UNL     1       3.003  10.343 -61.814  1.00  0.00     0.001 A 
HETATM   26  C   UNL     1       2.215  11.250 -62.523  1.00  0.00     0.007 A 
ENDBRANCH  19  21
ENDBRANCH  18  19
ENDBRANCH   4  18
TORSDOF 6
ENDMDL
MODEL 4
REMARK VINA RESULT:      -8.9      1.361      3.789
REMARK  6 active torsions:
REMARK  status: ('A' for Active; 'I' for Inactive)
REMARK    1  A    between atoms: C_2  and  C_3 
REMARK       I    between atoms: C_3  and  N_5 
REMARK    2  A    between atoms: N_5  and  C_6 
REMARK    3  A    between atoms: N_5  and  C_21 
REMARK    4  A    between atoms: N_9  and  C_12 
REMARK    5  A    between atoms: C_12  and  C_13 
REMARK    6  A    between atoms: C_13  and  C_15 
ROOT
HETATM    1  C   UNL     1       0.987  14.266 -58.841  1.00  0.00     0.096 C 
HETATM    2  C   UNL     1       1.864  15.081 -57.867  1.00  0.00     0.056 C 
HETATM    3  C   UNL     1       1.763  16.577 -58.135  1.00  0.00     0.274 C 
HETATM    4  N   UNL     1       2.140  16.942 -59.494  1.00  0.00     0.089 N 
HETATM    5  C   UNL     1       1.449  16.168 -60.528  1.00  0.00     0.274 C 
HETATM    6  C   UNL     1       1.440  14.656 -60.262  1.00  0.00     0.056 C 
ENDROOT
BRANCH   1   7
HETATM    7  N   UNL     1      -0.472  14.316 -58.485  1.00  0.00    -0.313 N 
HETATM    8  C   UNL     1      -1.288  13.171 -58.430  1.00  0.00     0.224 C 
HETATM    9  O   UNL     1      -2.420  13.161 -57.935  1.00  0.00    -0.273 OA
BRANCH   8  10
HETATM   10  C   UNL     1      -0.815  11.896 -59.112  1.00  0.00     0.099 C 
HETATM   11  C   UNL     1      -1.714  10.724 -58.769  1.00  0.00     0.014 C 
ENDBRANCH   8  10
BRANCH   7  12
HETATM   12  C   UNL     1      -1.024  15.521 -57.938  1.00  0.00     0.037 A 
HETATM   13  C   UNL     1      -1.162  15.681 -56.553  1.00  0.00     0.030 A 
HETATM   14  C   UNL     1      -1.654  16.874 -56.015  1.00  0.00     0.002 A 
HETATM   15  C   UNL     1      -2.040  17.911 -56.860  1.00  0.00     0.000 A 
HETATM   16  C   UNL     1      -1.968  17.741 -58.242  1.00  0.00     0.002 A 
HETATM   17  C   UNL     1      -1.480  16.545 -58.777  1.00  0.00     0.030 A 
ENDBRANCH   7  12
ENDBRANCH   1   7
BRANCH   4  18
HETATM   18  C   UNL     1       2.060  18.402 -59.749  1.00  0.00     0.281 C 
BRANCH  18  19
HETATM   19  C   UNL     1       2.878  19.042 -60.917  1.00  0.00     0.043 C 
HETATM   20  C   UNL     1       2.105  20.066 -61.765  1.00  0.00     0.016 C 
BRANCH  19  21
HETATM   21  C   UNL     1       4.136  19.733 -60.392  1.00  0.00    -0.053 A 
HETATM   22  C   UNL     1       4.999  20.428 -61.252  1.00  0.00     0.007 A 
HETATM   23  C   UNL     1       6.204  20.949 -60.779  1.00  0.00     0.001 A 
HETATM   24  C   UNL     1       6.550  20.798 -59.438  1.00  0.00     0.000 A 
HETATM   25  C   UNL     1       5.688  20.135 -58.567  1.00  0.00     0.001 A 
HETATM   26  C   UNL     1       4.487  19.606 -59.039  1.00  0.00     0.007 A 
ENDBRANCH  19  21
ENDBRANCH  18  19
ENDBRANCH   4  18
TORSDOF 6
ENDMDL
MODEL 5
REMARK VINA RESULT:      -8.7      2.955      6.534
REMARK  6 active torsions:
REMARK  status: ('A' for Active; 'I' for Inactive)
REMARK    1  A    between atoms: C_2  and  C_3 
REMARK       I    between atoms: C_3  and  N_5 
REMARK    2  A    between atoms: N_5  and  C_6 
REMARK    3  A    between atoms: N_5  and  C_21 
REMARK    4  A    between atoms: N_9  and  C_12 
REMARK    5  A    between atoms: C_12  and  C_13 
REMARK    6  A    between atoms: C_13  and  C_15 
ROOT
HETATM    1  C   UNL     1      -0.114  15.427 -56.985  1.00  0.00     0.096 C 
HETATM    2  C   UNL     1       1.061  14.573 -57.508  1.00  0.00     0.056 C 
HETATM    3  C   UNL     1       0.613  13.599 -58.589  1.00  0.00     0.274 C 
HETATM    4  N   UNL     1      -0.438  12.694 -58.146  1.00  0.00     0.089 N 
HETATM    5  C   UNL     1      -1.583  13.372 -57.533  1.00  0.00     0.274 C 
HETATM    6  C   UNL     1      -1.188  14.433 -56.496  1.00  0.00     0.056 C 
ENDROOT
BRANCH   1   7
HETATM    7  N   UNL     1      -0.496  16.526 -57.935  1.00  0.00    -0.313 N 
HETATM    8  C   UNL     1      -1.081  17.736 -57.514  1.00  0.00     0.224 C 
HETATM    9  O   UNL     1      -1.200  18.727 -58.241  1.00  0.00    -0.273 OA
BRANCH   8  10
HETATM   10  C   UNL     1      -1.705  17.808 -56.128  1.00  0.00     0.099 C 
HETATM   11  C   UNL     1      -3.216  17.698 -56.202  1.00  0.00     0.014 C 
ENDBRANCH   8  10
BRANCH   7  12
HETATM   12  C   UNL     1      -0.039  16.477 -59.293  1.00  0.00     0.037 A 
HETATM   13  C   UNL     1       1.216  16.992 -59.645  1.00  0.00     0.030 A 
HETATM   14  C   UNL     1       1.684  16.900 -60.959  1.00  0.00     0.002 A 
HETATM   15  C   UNL     1       0.890  16.317 -61.942  1.00  0.00     0.000 A 
HETATM   16  C   UNL     1      -0.386  15.859 -61.619  1.00  0.00     0.002 A 
HETATM   17  C   UNL     1      -0.854  15.955 -60.305  1.00  0.00     0.030 A 
ENDBRANCH   7  12
ENDBRANCH   1   7
BRANCH   4  18
HETATM   18  C   UNL     1      -0.861  11.732 -59.195  1.00  0.00     0.281 C 
BRANCH  18  19
HETATM   19  C   UNL     1      -0.106  10.374 -59.365  1.00  0.00     0.043 C 
HETATM   20  C   UNL     1      -1.004   9.170 -59.696  1.00  0.00     0.016 C 
BRANCH  19  21
HETATM   21  C   UNL     1       0.957  10.471 -60.458  1.00  0.00    -0.053 A 
HETATM   22  C   UNL     1       2.179   9.789 -60.349  1.00  0.00     0.007 A 
HETATM   23  C   UNL     1       3.187   9.983 -61.295  1.00  0.00     0.001 A 
HETATM   24  C   UNL     1       2.979  10.846 -62.368  1.00  0.00     0.000 A 
HETATM   25  C   UNL     1       1.760  11.507 -62.503  1.00  0.00     0.001 A 
HETATM   26  C   UNL     1       0.754  11.322 -61.555  1.00  0.00     0.007 A 
ENDBRANCH  19  21
ENDBRANCH  18  19
ENDBRANCH   4  18
TORSDOF 6
ENDMDL
MODEL 6
REMARK VINA RESULT:      -8.6      2.335      7.659
REMARK  6 active torsions:
REMARK  status: ('A' for Active; 'I' for Inactive)
REMARK    1  A    between atoms: C_2  and  C_3 
REMARK       I    between atoms: C_3  and  N_5 
REMARK    2  A    between atoms: N_5  and  C_6 
REMARK    3  A    between atoms: N_5  and  C_21 
REMARK    4  A    between atoms: N_9  and  C_12 
REMARK    5  A    between atoms: C_12  and  C_13 
REMARK    6  A    between atoms: C_13  and  C_15 
ROOT
HETATM    1  C   UNL     1       0.556  18.506 -59.485  1.00  0.00     0.096 C 
HETATM    2  C   UNL     1       0.694  17.646 -58.211  1.00  0.00     0.056 C 
HETATM    3  C   UNL     1       0.520  16.163 -58.509  1.00  0.00     0.274 C 
HETATM    4  N   UNL     1      -0.762  15.850 -59.125  1.00  0.00     0.089 N 
HETATM    5  C   UNL     1      -1.069  16.669 -60.301  1.00  0.00     0.274 C 
HETATM    6  C   UNL     1      -0.824  18.169 -60.086  1.00  0.00     0.056 C 
ENDROOT
BRANCH   1   7
HETATM    7  N   UNL     1       1.780  18.450 -60.355  1.00  0.00    -0.313 N 
HETATM    8  C   UNL     1       1.739  18.636 -61.750  1.00  0.00     0.224 C 
HETATM    9  O   UNL     1       2.745  18.809 -62.446  1.00  0.00    -0.273 OA
BRANCH   8  10
HETATM   10  C   UNL     1       0.406  18.508 -62.471  1.00  0.00     0.099 C 
HETATM   11  C   UNL     1       0.173  19.679 -63.405  1.00  0.00     0.014 C 
ENDBRANCH   8  10
BRANCH   7  12
HETATM   12  C   UNL     1       3.078  18.455 -59.748  1.00  0.00     0.037 A 
HETATM   13  C   UNL     1       3.776  17.258 -59.538  1.00  0.00     0.030 A 
HETATM   14  C   UNL     1       5.062  17.264 -58.992  1.00  0.00     0.002 A 
HETATM   15  C   UNL     1       5.656  18.468 -58.622  1.00  0.00     0.000 A 
HETATM   16  C   UNL     1       4.949  19.661 -58.766  1.00  0.00     0.002 A 
HETATM   17  C   UNL     1       3.660  19.652 -59.309  1.00  0.00     0.030 A 
ENDBRANCH   7  12
ENDBRANCH   1   7
BRANCH   4  18
HETATM   18  C   UNL     1      -0.940  14.402 -59.398  1.00  0.00     0.281 C 
BRANCH  18  19
HETATM   19  C   UNL     1      -1.062  13.388 -58.214  1.00  0.00     0.043 C 
HETATM   20  C   UNL     1      -2.409  13.414 -57.474  1.00  0.00     0.016 C 
BRANCH  19  21
HETATM   21  C   UNL     1      -0.825  11.956 -58.692  1.00  0.00    -0.053 A 
HETATM   22  C   UNL     1       0.373  11.587 -59.325  1.00  0.00     0.007 A 
HETATM   23  C   UNL     1       0.526  10.309 -59.863  1.00  0.00     0.001 A 
HETATM   24  C   UNL     1      -0.506   9.380 -59.758  1.00  0.00     0.000 A 
HETATM   25  C   UNL     1      -1.689   9.724 -59.107  1.00  0.00     0.001 A 
HETATM   26  C   UNL     1      -1.849  11.004 -58.575  1.00  0.00     0.007 A 
ENDBRANCH  19  21
ENDBRANCH  18  19
ENDBRANCH   4  18
TORSDOF 6
ENDMDL
MODEL 7
REMARK VINA RESULT:      -8.5      2.216      4.304
REMARK  6 active torsions:
REMARK  status: ('A' for Active; 'I' for Inactive)
REMARK    1  A    between atoms: C_2  and  C_3 
REMARK       I    between atoms: C_3  and  N_5 
REMARK    2  A    between atoms: N_5  and  C_6 
REMARK    3  A    between atoms: N_5  and  C_21 
REMARK    4  A    between atoms: N_9  and  C_12 
REMARK    5  A    between atoms: C_12  and  C_13 
REMARK    6  A    between atoms: C_13  and  C_15 
ROOT
HETATM    1  C   UNL     1       1.048  14.326 -58.668  1.00  0.00     0.096 C 
HETATM    2  C   UNL     1       1.881  15.484 -58.077  1.00  0.00     0.056 C 
HETATM    3  C   UNL     1       1.607  16.799 -58.795  1.00  0.00     0.274 C 
HETATM    4  N   UNL     1       1.873  16.737 -60.226  1.00  0.00     0.089 N 
HETATM    5  C   UNL     1       1.217  15.615 -60.901  1.00  0.00     0.274 C 
HETATM    6  C   UNL     1       1.384  14.274 -60.172  1.00  0.00     0.056 C 
ENDROOT
BRANCH   1   7
HETATM    7  N   UNL     1      -0.388  14.364 -58.227  1.00  0.00    -0.313 N 
HETATM    8  C   UNL     1      -1.185  13.210 -58.111  1.00  0.00     0.224 C 
HETATM    9  O   UNL     1      -2.286  13.193 -57.550  1.00  0.00    -0.273 OA
BRANCH   8  10
HETATM   10  C   UNL     1      -0.737  11.933 -58.805  1.00  0.00     0.099 C 
HETATM   11  C   UNL     1      -1.803  10.858 -58.716  1.00  0.00     0.014 C 
ENDBRANCH   8  10
BRANCH   7  12
HETATM   12  C   UNL     1      -0.922  15.569 -57.662  1.00  0.00     0.037 A 
HETATM   13  C   UNL     1      -0.832  15.816 -56.286  1.00  0.00     0.030 A 
HETATM   14  C   UNL     1      -1.307  17.011 -55.740  1.00  0.00     0.002 A 
HETATM   15  C   UNL     1      -1.904  17.963 -56.562  1.00  0.00     0.000 A 
HETATM   16  C   UNL     1      -2.057  17.703 -57.924  1.00  0.00     0.002 A 
HETATM   17  C   UNL     1      -1.584  16.504 -58.467  1.00  0.00     0.030 A 
ENDBRANCH   7  12
ENDBRANCH   1   7
BRANCH   4  18
HETATM   18  C   UNL     1       1.623  18.024 -60.922  1.00  0.00     0.281 C 
BRANCH  18  19
HETATM   19  C   UNL     1       2.584  19.237 -60.699  1.00  0.00     0.043 C 
HETATM   20  C   UNL     1       4.070  18.946 -60.967  1.00  0.00     0.016 C 
BRANCH  19  21
HETATM   21  C   UNL     1       2.181  20.424 -61.572  1.00  0.00    -0.053 A 
HETATM   22  C   UNL     1       3.050  21.506 -61.779  1.00  0.00     0.007 A 
HETATM   23  C   UNL     1       2.622  22.636 -62.478  1.00  0.00     0.001 A 
HETATM   24  C   UNL     1       1.330  22.689 -62.994  1.00  0.00     0.000 A 
HETATM   25  C   UNL     1       0.467  21.609 -62.820  1.00  0.00     0.001 A 
HETATM   26  C   UNL     1       0.888  20.482 -62.114  1.00  0.00     0.007 A 
ENDBRANCH  19  21
ENDBRANCH  18  19
ENDBRANCH   4  18
TORSDOF 6
ENDMDL
MODEL 8
REMARK VINA RESULT:      -8.5      2.682      7.399
REMARK  6 active torsions:
REMARK  status: ('A' for Active; 'I' for Inactive)
REMARK    1  A    between atoms: C_2  and  C_3 
REMARK       I    between atoms: C_3  and  N_5 
REMARK    2  A    between atoms: N_5  and  C_6 
REMARK    3  A    between atoms: N_5  and  C_21 
REMARK    4  A    between atoms: N_9  and  C_12 
REMARK    5  A    between atoms: C_12  and  C_13 
REMARK    6  A    between atoms: C_13  and  C_15 
ROOT
HETATM    1  C   UNL     1       0.950  17.841 -61.790  1.00  0.00     0.096 C 
HETATM    2  C   UNL     1      -0.424  18.074 -61.125  1.00  0.00     0.056 C 
HETATM    3  C   UNL     1      -0.304  18.201 -59.612  1.00  0.00     0.274 C 
HETATM    4  N   UNL     1       0.307  17.036 -58.986  1.00  0.00     0.089 N 
HETATM    5  C   UNL     1       1.582  16.641 -59.590  1.00  0.00     0.274 C 
HETATM    6  C   UNL     1       1.545  16.584 -61.123  1.00  0.00     0.056 C 
ENDROOT
BRANCH   1   7
HETATM    7  N   UNL     1       1.770  19.096 -61.876  1.00  0.00    -0.313 N 
HETATM    8  C   UNL     1       1.318  20.266 -62.517  1.00  0.00     0.224 C 
HETATM    9  O   UNL     1       1.877  21.362 -62.412  1.00  0.00    -0.273 OA
BRANCH   8  10
HETATM   10  C   UNL     1       0.146  20.170 -63.482  1.00  0.00     0.099 C 
HETATM   11  C   UNL     1      -0.345  21.546 -63.886  1.00  0.00     0.014 C 
ENDBRANCH   8  10
BRANCH   7  12
HETATM   12  C   UNL     1       2.955  19.222 -61.079  1.00  0.00     0.037 A 
HETATM   13  C   UNL     1       2.875  19.594 -59.730  1.00  0.00     0.030 A 
HETATM   14  C   UNL     1       4.024  19.669 -58.938  1.00  0.00     0.002 A 
HETATM   15  C   UNL     1       5.271  19.400 -59.494  1.00  0.00     0.000 A 
HETATM   16  C   UNL     1       5.372  19.091 -60.850  1.00  0.00     0.002 A 
HETATM   17  C   UNL     1       4.222  19.020 -61.641  1.00  0.00     0.030 A 
ENDBRANCH   7  12
ENDBRANCH   1   7
BRANCH   4  18
HETATM   18  C   UNL     1       0.406  17.153 -57.509  1.00  0.00     0.281 C 
BRANCH  18  19
HETATM   19  C   UNL     1      -0.693  16.519 -56.596  1.00  0.00     0.043 C 
HETATM   20  C   UNL     1      -2.071  17.196 -56.673  1.00  0.00     0.016 C 
BRANCH  19  21
HETATM   21  C   UNL     1      -0.886  15.038 -56.918  1.00  0.00    -0.053 A 
HETATM   22  C   UNL     1       0.205  14.209 -57.221  1.00  0.00     0.007 A 
HETATM   23  C   UNL     1       0.001  12.891 -57.630  1.00  0.00     0.001 A 
HETATM   24  C   UNL     1      -1.291  12.381 -57.724  1.00  0.00     0.000 A 
HETATM   25  C   UNL     1      -2.381  13.185 -57.399  1.00  0.00     0.001 A 
HETATM   26  C   UNL     1      -2.182  14.506 -56.997  1.00  0.00     0.007 A 
ENDBRANCH  19  21
ENDBRANCH  18  19
ENDBRANCH   4  18
TORSDOF 6
ENDMDL
MODEL 9
REMARK VINA RESULT:      -8.1      1.960      3.211
REMARK  6 active torsions:
REMARK  status: ('A' for Active; 'I' for Inactive)
REMARK    1  A    between atoms: C_2  and  C_3 
REMARK       I    between atoms: C_3  and  N_5 
REMARK    2  A    between atoms: N_5  and  C_6 
REMARK    3  A    between atoms: N_5  and  C_21 
REMARK    4  A    between atoms: N_9  and  C_12 
REMARK    5  A    between atoms: C_12  and  C_13 
REMARK    6  A    between atoms: C_13  and  C_15 
ROOT
HETATM    1  C   UNL     1       1.050  14.877 -58.075  1.00  0.00     0.096 C 
HETATM    2  C   UNL     1       0.563  16.068 -57.221  1.00  0.00     0.056 C 
HETATM    3  C   UNL     1       0.427  17.338 -58.051  1.00  0.00     0.274 C 
HETATM    4  N   UNL     1       1.669  17.731 -58.704  1.00  0.00     0.089 N 
HETATM    5  C   UNL     1       2.297  16.655 -59.475  1.00  0.00     0.274 C 
HETATM    6  C   UNL     1       2.378  15.322 -58.719  1.00  0.00     0.056 C 
ENDROOT
BRANCH   1   7
HETATM    7  N   UNL     1      -0.038  14.300 -58.935  1.00  0.00    -0.313 N 
HETATM    8  C   UNL     1      -1.304  13.941 -58.433  1.00  0.00     0.224 C 
HETATM    9  O   UNL     1      -2.272  13.672 -59.151  1.00  0.00    -0.273 OA
BRANCH   8  10
HETATM   10  C   UNL     1      -1.476  13.759 -56.933  1.00  0.00     0.099 C 
HETATM   11  C   UNL     1      -2.939  13.604 -56.564  1.00  0.00     0.014 C 
ENDBRANCH   8  10
BRANCH   7  12
HETATM   12  C   UNL     1       0.098  14.332 -60.362  1.00  0.00     0.037 A 
HETATM   13  C   UNL     1       0.570  13.213 -61.061  1.00  0.00     0.030 A 
HETATM   14  C   UNL     1       0.657  13.224 -62.456  1.00  0.00     0.002 A 
HETATM   15  C   UNL     1       0.298  14.366 -63.167  1.00  0.00     0.000 A 
HETATM   16  C   UNL     1      -0.114  15.508 -62.480  1.00  0.00     0.002 A 
HETATM   17  C   UNL     1      -0.196  15.495 -61.084  1.00  0.00     0.030 A 
ENDBRANCH   7  12
ENDBRANCH   1   7
BRANCH   4  18
HETATM   18  C   UNL     1       1.541  18.979 -59.496  1.00  0.00     0.281 C 
BRANCH  18  19
HETATM   19  C   UNL     1       2.420  19.194 -60.771  1.00  0.00     0.043 C 
HETATM   20  C   UNL     1       1.703  19.882 -61.945  1.00  0.00     0.016 C 
BRANCH  19  21
HETATM   21  C   UNL     1       3.666  20.015 -60.445  1.00  0.00    -0.053 A 
HETATM   22  C   UNL     1       4.078  21.074 -61.269  1.00  0.00     0.007 A 
HETATM   23  C   UNL     1       5.283  21.735 -61.026  1.00  0.00     0.001 A 
HETATM   24  C   UNL     1       6.079  21.359 -59.947  1.00  0.00     0.000 A 
HETATM   25  C   UNL     1       5.668  20.329 -59.105  1.00  0.00     0.001 A 
HETATM   26  C   UNL     1       4.468  19.660 -59.350  1.00  0.00     0.007 A 
ENDBRANCH  19  21
ENDBRANCH  18  19
ENDBRANCH   4  18
TORSDOF 6
ENDMDL
MODEL 10
REMARK VINA RESULT:      -8.0      3.153      6.036
REMARK  6 active torsions:
REMARK  status: ('A' for Active; 'I' for Inactive)
REMARK    1  A    between atoms: C_2  and  C_3 
REMARK       I    between atoms: C_3  and  N_5 
REMARK    2  A    between atoms: N_5  and  C_6 
REMARK    3  A    between atoms: N_5  and  C_21 
REMARK    4  A    between atoms: N_9  and  C_12 
REMARK    5  A    between atoms: C_12  and  C_13 
REMARK    6  A    between atoms: C_13  and  C_15 
ROOT
HETATM    1  C   UNL     1       0.799  15.082 -57.106  1.00  0.00     0.096 C 
HETATM    2  C   UNL     1       1.956  14.939 -58.119  1.00  0.00     0.056 C 
HETATM    3  C   UNL     1       1.489  14.302 -59.421  1.00  0.00     0.274 C 
HETATM    4  N   UNL     1       0.891  12.988 -59.233  1.00  0.00     0.089 N 
HETATM    5  C   UNL     1      -0.165  12.958 -58.218  1.00  0.00     0.274 C 
HETATM    6  C   UNL     1       0.217  13.667 -56.911  1.00  0.00     0.056 C 
ENDROOT
BRANCH   1   7
HETATM    7  N   UNL     1      -0.118  16.225 -57.434  1.00  0.00    -0.313 N 
HETATM    8  C   UNL     1      -0.707  17.044 -56.451  1.00  0.00     0.224 C 
HETATM    9  O   UNL     1      -1.281  18.108 -56.702  1.00  0.00    -0.273 OA
BRANCH   8  10
HETATM   10  C   UNL     1      -0.746  16.553 -55.012  1.00  0.00     0.099 C 
HETATM   11  C   UNL     1       0.475  17.016 -54.242  1.00  0.00     0.014 C 
ENDBRANCH   8  10
BRANCH   7  12
HETATM   12  C   UNL     1      -0.224  16.679 -58.790  1.00  0.00     0.037 A 
HETATM   13  C   UNL     1      -1.215  16.169 -59.640  1.00  0.00     0.030 A 
HETATM   14  C   UNL     1      -1.351  16.646 -60.947  1.00  0.00     0.002 A 
HETATM   15  C   UNL     1      -0.480  17.619 -61.428  1.00  0.00     0.000 A 
HETATM   16  C   UNL     1       0.550  18.089 -60.614  1.00  0.00     0.002 A 
HETATM   17  C   UNL     1       0.687  17.608 -59.308  1.00  0.00     0.030 A 
ENDBRANCH   7  12
ENDBRANCH   1   7
BRANCH   4  18
HETATM   18  C   UNL     1       0.454  12.359 -60.505  1.00  0.00     0.281 C 
BRANCH  18  19
HETATM   19  C   UNL     1       1.376  12.414 -61.766  1.00  0.00     0.043 C 
HETATM   20  C   UNL     1       1.886  11.049 -62.257  1.00  0.00     0.016 C 
BRANCH  19  21
HETATM   21  C   UNL     1       0.663  13.089 -62.937  1.00  0.00    -0.053 A 
HETATM   22  C   UNL     1       0.067  12.337 -63.961  1.00  0.00     0.007 A 
HETATM   23  C   UNL     1      -0.472  12.967 -65.082  1.00  0.00     0.001 A 
HETATM   24  C   UNL     1      -0.441  14.355 -65.185  1.00  0.00     0.000 A 
HETATM   25  C   UNL     1       0.122  15.116 -64.163  1.00  0.00     0.001 A 
HETATM   26  C   UNL     1       0.670  14.489 -63.043  1.00  0.00     0.007 A 
ENDBRANCH  19  21
ENDBRANCH  18  19
ENDBRANCH   4  18
TORSDOF 6
ENDMDL
