MODEL 1
REMARK VINA RESULT:      -8.2      0.000      0.000
REMARK  7 active torsions:
REMARK  status: ('A' for Active; 'I' for Inactive)
REMARK    1  A    between atoms: C_2  and  C_3 
REMARK       I    between atoms: C_3  and  N_5 
REMARK    2  A    between atoms: N_5  and  C_6 
REMARK    3  A    between atoms: N_5  and  C_20 
REMARK    4  A    between atoms: N_9  and  C_12 
REMARK    5  A    between atoms: C_12  and  C_13 
REMARK    6  A    between atoms: C_13  and  C_14 
REMARK    7  A    between atoms: C_13  and  O_19 
ROOT
HETATM    1  C   UNL     1       1.050  14.361 -58.772  1.00  0.00     0.096 C 
HETATM    2  C   UNL     1       1.960  15.436 -58.157  1.00  0.00     0.045 C 
HETATM    3  C   UNL     1       2.186  16.721 -58.976  1.00  0.00     0.119 C 
HETATM    4  N   UNL     1       2.106  16.595 -60.427  1.00  0.00    -0.409 N 
HETATM    5  C   UNL     1       1.171  15.612 -60.963  1.00  0.00     0.119 C 
HETATM    6  C   UNL     1       1.308  14.264 -60.278  1.00  0.00     0.045 C 
ENDROOT
BRANCH   1   7
HETATM    7  N   UNL     1      -0.416  14.297 -58.394  1.00  0.00    -0.313 N 
HETATM    8  C   UNL     1      -1.320  13.238 -58.313  1.00  0.00     0.224 C 
HETATM    9  O   UNL     1      -2.526  13.404 -58.070  1.00  0.00    -0.273 OA
BRANCH   8  10
HETATM   10  C   UNL     1      -0.892  11.825 -58.549  1.00  0.00     0.099 C 
HETATM   11  C   UNL     1      -2.075  10.888 -58.691  1.00  0.00     0.014 C 
ENDBRANCH   8  10
BRANCH   7  12
HETATM   12  C   UNL     1      -0.928  15.535 -57.856  1.00  0.00     0.037 A 
HETATM   13  C   UNL     1      -1.076  15.682 -56.468  1.00  0.00     0.030 A 
HETATM   14  C   UNL     1      -1.681  16.818 -55.934  1.00  0.00     0.002 A 
HETATM   15  C   UNL     1      -2.154  17.813 -56.785  1.00  0.00     0.000 A 
HETATM   16  C   UNL     1      -2.000  17.681 -58.167  1.00  0.00     0.002 A 
HETATM   17  C   UNL     1      -1.377  16.551 -58.704  1.00  0.00     0.030 A 
ENDBRANCH   7  12
ENDBRANCH   1   7
BRANCH   4  18
HETATM   18  C   UNL     1       2.079  17.892 -61.144  1.00  0.00     0.153 C 
BRANCH  18  19
HETATM   19  C   UNL     1       2.118  19.249 -60.369  1.00  0.00     0.175 C 
BRANCH  19  20
HETATM   20  C   UNL     1       3.421  20.009 -60.400  1.00  0.00     0.013 A 
HETATM   21  C   UNL     1       3.851  21.021 -61.241  1.00  0.00     0.018 A 
HETATM   22  C   UNL     1       5.158  21.493 -60.914  1.00  0.00     0.008 A 
HETATM   23  C   UNL     1       5.683  20.844 -59.821  1.00  0.00     0.050 A 
HETATM   24  S   UNL     1       4.583  19.716 -59.160  1.00  0.00    -0.104 SA
ENDBRANCH  19  20
BRANCH  19  25
HETATM   25  O   UNL     1       1.133  20.127 -60.936  1.00  0.00    -0.389 OA
HETATM   26  H   UNL     1       1.139  20.951 -60.421  1.00  0.00     0.210 HD
ENDBRANCH  19  25
ENDBRANCH  18  19
ENDBRANCH   4  18
TORSDOF 7
ENDMDL
MODEL 2
REMARK VINA RESULT:      -8.0      1.431      3.589
REMARK  7 active torsions:
REMARK  status: ('A' for Active; 'I' for Inactive)
REMARK    1  A    between atoms: C_2  and  C_3 
REMARK       I    between atoms: C_3  and  N_5 
REMARK    2  A    between atoms: N_5  and  C_6 
REMARK    3  A    between atoms: N_5  and  C_20 
REMARK    4  A    between atoms: N_9  and  C_12 
REMARK    5  A    between atoms: C_12  and  C_13 
REMARK    6  A    between atoms: C_13  and  C_14 
REMARK    7  A    between atoms: C_13  and  O_19 
ROOT
HETATM    1  C   UNL     1      -1.182  16.348 -59.660  1.00  0.00     0.096 C 
HETATM    2  C   UNL     1      -0.501  15.820 -60.932  1.00  0.00     0.045 C 
HETATM    3  C   UNL     1       0.782  16.535 -61.394  1.00  0.00     0.119 C 
HETATM    4  N   UNL     1       0.904  17.947 -61.051  1.00  0.00    -0.409 N 
HETATM    5  C   UNL     1       0.305  18.385 -59.795  1.00  0.00     0.119 C 
HETATM    6  C   UNL     1      -1.116  17.878 -59.635  1.00  0.00     0.045 C 
ENDROOT
BRANCH   1   7
HETATM    7  N   UNL     1      -0.902  15.699 -58.320  1.00  0.00    -0.313 N 
HETATM    8  C   UNL     1      -0.981  16.172 -57.011  1.00  0.00     0.224 C 
HETATM    9  O   UNL     1      -0.612  15.504 -56.033  1.00  0.00    -0.273 OA
BRANCH   8  10
HETATM   10  C   UNL     1      -1.490  17.545 -56.706  1.00  0.00     0.099 C 
HETATM   11  C   UNL     1      -2.938  17.530 -56.262  1.00  0.00     0.014 C 
ENDBRANCH   8  10
BRANCH   7  12
HETATM   12  C   UNL     1      -0.672  14.276 -58.405  1.00  0.00     0.037 A 
HETATM   13  C   UNL     1       0.633  13.791 -58.592  1.00  0.00     0.030 A 
HETATM   14  C   UNL     1       0.863  12.432 -58.798  1.00  0.00     0.002 A 
HETATM   15  C   UNL     1      -0.210  11.547 -58.830  1.00  0.00     0.000 A 
HETATM   16  C   UNL     1      -1.510  12.018 -58.631  1.00  0.00     0.002 A 
HETATM   17  C   UNL     1      -1.743  13.378 -58.406  1.00  0.00     0.030 A 
ENDBRANCH   7  12
ENDBRANCH   1   7
BRANCH   4  18
HETATM   18  C   UNL     1       2.252  18.513 -61.294  1.00  0.00     0.153 C 
BRANCH  18  19
HETATM   19  C   UNL     1       2.579  20.004 -60.958  1.00  0.00     0.175 C 
BRANCH  19  20
HETATM   20  C   UNL     1       3.994  20.306 -60.530  1.00  0.00     0.013 A 
HETATM   21  C   UNL     1       4.954  21.119 -61.110  1.00  0.00     0.018 A 
HETATM   22  C   UNL     1       6.172  21.151 -60.366  1.00  0.00     0.008 A 
HETATM   23  C   UNL     1       6.104  20.380 -59.229  1.00  0.00     0.050 A 
HETATM   24  S   UNL     1       4.563  19.670 -59.031  1.00  0.00    -0.104 SA
ENDBRANCH  19  20
BRANCH  19  25
HETATM   25  O   UNL     1       2.341  20.799 -62.130  1.00  0.00    -0.389 OA
HETATM   26  H   UNL     1       1.760  20.292 -62.720  1.00  0.00     0.210 HD
ENDBRANCH  19  25
ENDBRANCH  18  19
ENDBRANCH   4  18
TORSDOF 7
ENDMDL
MODEL 3
REMARK VINA RESULT:      -8.0      1.921      4.105
REMARK  7 active torsions:
REMARK  status: ('A' for Active; 'I' for Inactive)
REMARK    1  A    between atoms: C_2  and  C_3 
REMARK       I    between atoms: C_3  and  N_5 
REMARK    2  A    between atoms: N_5  and  C_6 
REMARK    3  A    between atoms: N_5  and  C_20 
REMARK    4  A    between atoms: N_9  and  C_12 
REMARK    5  A    between atoms: C_12  and  C_13 
REMARK    6  A    between atoms: C_13  and  C_14 
REMARK    7  A    between atoms: C_13  and  O_19 
ROOT
HETATM    1  C   UNL     1      -0.175  14.163 -60.549  1.00  0.00     0.096 C 
HETATM    2  C   UNL     1       0.847  14.744 -61.538  1.00  0.00     0.045 C 
HETATM    3  C   UNL     1       1.229  16.227 -61.368  1.00  0.00     0.119 C 
HETATM    4  N   UNL     1       0.216  17.101 -60.788  1.00  0.00    -0.409 N 
HETATM    5  C   UNL     1      -0.682  16.520 -59.796  1.00  0.00     0.119 C 
HETATM    6  C   UNL     1      -1.266  15.199 -60.262  1.00  0.00     0.045 C 
ENDROOT
BRANCH   1   7
HETATM    7  N   UNL     1       0.297  13.412 -59.320  1.00  0.00    -0.313 N 
HETATM    8  C   UNL     1       0.988  13.817 -58.179  1.00  0.00     0.224 C 
HETATM    9  O   UNL     1       1.372  13.020 -57.309  1.00  0.00    -0.273 OA
BRANCH   8  10
HETATM   10  C   UNL     1       1.341  15.252 -57.947  1.00  0.00     0.099 C 
HETATM   11  C   UNL     1       0.927  15.724 -56.568  1.00  0.00     0.014 C 
ENDBRANCH   8  10
BRANCH   7  12
HETATM   12  C   UNL     1      -0.209  12.063 -59.239  1.00  0.00     0.037 A 
HETATM   13  C   UNL     1       0.503  11.014 -59.843  1.00  0.00     0.030 A 
HETATM   14  C   UNL     1      -0.026   9.726 -59.883  1.00  0.00     0.002 A 
HETATM   15  C   UNL     1      -1.277   9.475 -59.327  1.00  0.00     0.000 A 
HETATM   16  C   UNL     1      -1.987  10.509 -58.711  1.00  0.00     0.002 A 
HETATM   17  C   UNL     1      -1.451  11.799 -58.654  1.00  0.00     0.030 A 
ENDBRANCH   7  12
ENDBRANCH   1   7
BRANCH   4  18
HETATM   18  C   UNL     1       0.720  18.445 -60.417  1.00  0.00     0.153 C 
BRANCH  18  19
HETATM   19  C   UNL     1       1.886  18.619 -59.391  1.00  0.00     0.175 C 
BRANCH  19  20
HETATM   20  C   UNL     1       3.026  19.516 -59.807  1.00  0.00     0.013 A 
HETATM   21  C   UNL     1       4.228  19.792 -59.178  1.00  0.00     0.018 A 
HETATM   22  C   UNL     1       5.051  20.686 -59.927  1.00  0.00     0.008 A 
HETATM   23  C   UNL     1       4.465  21.053 -61.117  1.00  0.00     0.050 A 
HETATM   24  S   UNL     1       2.962  20.278 -61.353  1.00  0.00    -0.104 SA
ENDBRANCH  19  20
BRANCH  19  25
HETATM   25  O   UNL     1       1.354  19.190 -58.186  1.00  0.00    -0.389 OA
HETATM   26  H   UNL     1       0.392  19.052 -58.192  1.00  0.00     0.210 HD
ENDBRANCH  19  25
ENDBRANCH  18  19
ENDBRANCH   4  18
TORSDOF 7
ENDMDL
MODEL 4
REMARK VINA RESULT:      -8.0      1.726      3.209
REMARK  7 active torsions:
REMARK  status: ('A' for Active; 'I' for Inactive)
REMARK    1  A    between atoms: C_2  and  C_3 
REMARK       I    between atoms: C_3  and  N_5 
REMARK    2  A    between atoms: N_5  and  C_6 
REMARK    3  A    between atoms: N_5  and  C_20 
REMARK    4  A    between atoms: N_9  and  C_12 
REMARK    5  A    between atoms: C_12  and  C_13 
REMARK    6  A    between atoms: C_13  and  C_14 
REMARK    7  A    between atoms: C_13  and  O_19 
ROOT
HETATM    1  C   UNL     1      -0.518  16.092 -60.555  1.00  0.00     0.096 C 
HETATM    2  C   UNL     1       0.039  15.976 -61.982  1.00  0.00     0.045 C 
HETATM    3  C   UNL     1       1.137  16.975 -62.395  1.00  0.00     0.119 C 
HETATM    4  N   UNL     1       1.118  18.276 -61.737  1.00  0.00    -0.409 N 
HETATM    5  C   UNL     1       0.652  18.322 -60.355  1.00  0.00     0.119 C 
HETATM    6  C   UNL     1      -0.652  17.568 -60.170  1.00  0.00     0.045 C 
ENDROOT
BRANCH   1   7
HETATM    7  N   UNL     1       0.035  15.217 -59.449  1.00  0.00    -0.313 N 
HETATM    8  C   UNL     1       1.335  14.962 -59.012  1.00  0.00     0.224 C 
HETATM    9  O   UNL     1       1.595  14.126 -58.133  1.00  0.00    -0.273 OA
BRANCH   8  10
HETATM   10  C   UNL     1       2.511  15.668 -59.607  1.00  0.00     0.099 C 
HETATM   11  C   UNL     1       3.401  16.284 -58.546  1.00  0.00     0.014 C 
ENDBRANCH   8  10
BRANCH   7  12
HETATM   12  C   UNL     1      -0.981  14.676 -58.578  1.00  0.00     0.037 A 
HETATM   13  C   UNL     1      -1.301  15.341 -57.383  1.00  0.00     0.030 A 
HETATM   14  C   UNL     1      -2.189  14.776 -56.470  1.00  0.00     0.002 A 
HETATM   15  C   UNL     1      -2.757  13.534 -56.738  1.00  0.00     0.000 A 
HETATM   16  C   UNL     1      -2.456  12.870 -57.930  1.00  0.00     0.002 A 
HETATM   17  C   UNL     1      -1.579  13.444 -58.856  1.00  0.00     0.030 A 
ENDBRANCH   7  12
ENDBRANCH   1   7
BRANCH   4  18
HETATM   18  C   UNL     1       2.331  19.093 -61.981  1.00  0.00     0.153 C 
BRANCH  18  19
HETATM   19  C   UNL     1       2.646  20.357 -61.118  1.00  0.00     0.175 C 
BRANCH  19  20
HETATM   20  C   UNL     1       4.068  20.513 -60.640  1.00  0.00     0.013 A 
HETATM   21  C   UNL     1       5.130  21.210 -61.191  1.00  0.00     0.018 A 
HETATM   22  C   UNL     1       6.317  21.123 -60.403  1.00  0.00     0.008 A 
HETATM   23  C   UNL     1       6.126  20.379 -59.261  1.00  0.00     0.050 A 
HETATM   24  S   UNL     1       4.511  19.841 -59.114  1.00  0.00    -0.104 SA
ENDBRANCH  19  20
BRANCH  19  25
HETATM   25  O   UNL     1       2.360  21.527 -61.899  1.00  0.00    -0.389 OA
HETATM   26  H   UNL     1       1.614  21.988 -61.481  1.00  0.00     0.210 HD
ENDBRANCH  19  25
ENDBRANCH  18  19
ENDBRANCH   4  18
TORSDOF 7
ENDMDL
MODEL 5
REMARK VINA RESULT:      -7.8      1.476      2.064
REMARK  7 active torsions:
REMARK  status: ('A' for Active; 'I' for Inactive)
REMARK    1  A    between atoms: C_2  and  C_3 
REMARK       I    between atoms: C_3  and  N_5 
REMARK    2  A    between atoms: N_5  and  C_6 
REMARK    3  A    between atoms: N_5  and  C_20 
REMARK    4  A    between atoms: N_9  and  C_12 
REMARK    5  A    between atoms: C_12  and  C_13 
REMARK    6  A    between atoms: C_13  and  C_14 
REMARK    7  A    between atoms: C_13  and  O_19 
ROOT
HETATM    1  C   UNL     1      -0.712  14.785 -60.318  1.00  0.00     0.096 C 
HETATM    2  C   UNL     1       0.652  14.881 -61.020  1.00  0.00     0.045 C 
HETATM    3  C   UNL     1       1.376  16.240 -60.971  1.00  0.00     0.119 C 
HETATM    4  N   UNL     1       0.535  17.427 -60.874  1.00  0.00    -0.409 N 
HETATM    5  C   UNL     1      -0.715  17.304 -60.132  1.00  0.00     0.119 C 
HETATM    6  C   UNL     1      -1.504  16.075 -60.546  1.00  0.00     0.045 C 
ENDROOT
BRANCH   1   7
HETATM    7  N   UNL     1      -0.803  14.250 -58.903  1.00  0.00    -0.313 N 
HETATM    8  C   UNL     1      -0.772  12.956 -58.384  1.00  0.00     0.224 C 
HETATM    9  O   UNL     1      -0.959  12.711 -57.182  1.00  0.00    -0.273 OA
BRANCH   8  10
HETATM   10  C   UNL     1      -0.541  11.767 -59.261  1.00  0.00     0.099 C 
HETATM   11  C   UNL     1       0.929  11.417 -59.369  1.00  0.00     0.014 C 
ENDBRANCH   8  10
BRANCH   7  12
HETATM   12  C   UNL     1      -0.742  15.278 -57.892  1.00  0.00     0.037 A 
HETATM   13  C   UNL     1       0.503  15.680 -57.381  1.00  0.00     0.030 A 
HETATM   14  C   UNL     1       0.579  16.580 -56.320  1.00  0.00     0.002 A 
HETATM   15  C   UNL     1      -0.590  17.079 -55.753  1.00  0.00     0.000 A 
HETATM   16  C   UNL     1      -1.833  16.696 -56.262  1.00  0.00     0.002 A 
HETATM   17  C   UNL     1      -1.912  15.806 -57.338  1.00  0.00     0.030 A 
ENDBRANCH   7  12
ENDBRANCH   1   7
BRANCH   4  18
HETATM   18  C   UNL     1       1.281  18.673 -60.577  1.00  0.00     0.153 C 
BRANCH  18  19
HETATM   19  C   UNL     1       2.348  18.727 -59.436  1.00  0.00     0.175 C 
BRANCH  19  20
HETATM   20  C   UNL     1       3.538  19.626 -59.664  1.00  0.00     0.013 A 
HETATM   21  C   UNL     1       4.686  19.806 -58.911  1.00  0.00     0.018 A 
HETATM   22  C   UNL     1       5.589  20.743 -59.497  1.00  0.00     0.008 A 
HETATM   23  C   UNL     1       5.118  21.240 -60.690  1.00  0.00     0.050 A 
HETATM   24  S   UNL     1       3.624  20.535 -61.128  1.00  0.00    -0.104 SA
ENDBRANCH  19  20
BRANCH  19  25
HETATM   25  O   UNL     1       1.714  19.206 -58.240  1.00  0.00    -0.389 OA
HETATM   26  H   UNL     1       1.141  19.951 -58.485  1.00  0.00     0.210 HD
ENDBRANCH  19  25
ENDBRANCH  18  19
ENDBRANCH   4  18
TORSDOF 7
ENDMDL
MODEL 6
REMARK VINA RESULT:      -7.7      2.733      4.030
REMARK  7 active torsions:
REMARK  status: ('A' for Active; 'I' for Inactive)
REMARK    1  A    between atoms: C_2  and  C_3 
REMARK       I    between atoms: C_3  and  N_5 
REMARK    2  A    between atoms: N_5  and  C_6 
REMARK    3  A    between atoms: N_5  and  C_20 
REMARK    4  A    between atoms: N_9  and  C_12 
REMARK    5  A    between atoms: C_12  and  C_13 
REMARK    6  A    between atoms: C_13  and  C_14 
REMARK    7  A    between atoms: C_13  and  O_19 
ROOT
HETATM    1  C   UNL     1      -0.257  14.950 -60.947  1.00  0.00     0.096 C 
HETATM    2  C   UNL     1       0.737  15.000 -62.117  1.00  0.00     0.045 C 
HETATM    3  C   UNL     1       1.191  16.391 -62.599  1.00  0.00     0.119 C 
HETATM    4  N   UNL     1       0.247  17.487 -62.415  1.00  0.00    -0.409 N 
HETATM    5  C   UNL     1      -0.625  17.431 -61.246  1.00  0.00     0.119 C 
HETATM    6  C   UNL     1      -1.287  16.074 -61.095  1.00  0.00     0.045 C 
ENDROOT
BRANCH   1   7
HETATM    7  N   UNL     1       0.243  14.758 -59.530  1.00  0.00    -0.313 N 
HETATM    8  C   UNL     1       1.460  15.050 -58.915  1.00  0.00     0.224 C 
HETATM    9  O   UNL     1       1.714  14.725 -57.745  1.00  0.00    -0.273 OA
BRANCH   8  10
HETATM   10  C   UNL     1       2.557  15.752 -59.648  1.00  0.00     0.099 C 
HETATM   11  C   UNL     1       2.577  17.239 -59.357  1.00  0.00     0.014 C 
ENDBRANCH   8  10
BRANCH   7  12
HETATM   12  C   UNL     1      -0.788  14.351 -58.604  1.00  0.00     0.037 A 
HETATM   13  C   UNL     1      -1.200  15.232 -57.591  1.00  0.00     0.030 A 
HETATM   14  C   UNL     1      -2.103  14.818 -56.614  1.00  0.00     0.002 A 
HETATM   15  C   UNL     1      -2.594  13.516 -56.634  1.00  0.00     0.000 A 
HETATM   16  C   UNL     1      -2.200  12.636 -57.646  1.00  0.00     0.002 A 
HETATM   17  C   UNL     1      -1.308  13.055 -58.638  1.00  0.00     0.030 A 
ENDBRANCH   7  12
ENDBRANCH   1   7
BRANCH   4  18
HETATM   18  C   UNL     1       0.827  18.829 -62.659  1.00  0.00     0.153 C 
BRANCH  18  19
HETATM   19  C   UNL     1      -0.011  19.965 -63.331  1.00  0.00     0.175 C 
BRANCH  19  20
HETATM   20  C   UNL     1       0.501  21.374 -63.162  1.00  0.00     0.013 A 
HETATM   21  C   UNL     1      -0.100  22.588 -63.447  1.00  0.00     0.018 A 
HETATM   22  C   UNL     1       0.725  23.704 -63.112  1.00  0.00     0.008 A 
HETATM   23  C   UNL     1       1.924  23.314 -62.562  1.00  0.00     0.050 A 
HETATM   24  S   UNL     1       2.028  21.617 -62.398  1.00  0.00    -0.104 SA
ENDBRANCH  19  20
BRANCH  19  25
HETATM   25  O   UNL     1      -0.053  19.726 -64.746  1.00  0.00    -0.389 OA
HETATM   26  H   UNL     1      -0.617  20.407 -65.146  1.00  0.00     0.210 HD
ENDBRANCH  19  25
ENDBRANCH  18  19
ENDBRANCH   4  18
TORSDOF 7
ENDMDL
MODEL 7
REMARK VINA RESULT:      -7.7      2.960      7.206
REMARK  7 active torsions:
REMARK  status: ('A' for Active; 'I' for Inactive)
REMARK    1  A    between atoms: C_2  and  C_3 
REMARK       I    between atoms: C_3  and  N_5 
REMARK    2  A    between atoms: N_5  and  C_6 
REMARK    3  A    between atoms: N_5  and  C_20 
REMARK    4  A    between atoms: N_9  and  C_12 
REMARK    5  A    between atoms: C_12  and  C_13 
REMARK    6  A    between atoms: C_13  and  C_14 
REMARK    7  A    between atoms: C_13  and  O_19 
ROOT
HETATM    1  C   UNL     1       1.877  18.603 -60.211  1.00  0.00     0.096 C 
HETATM    2  C   UNL     1       2.796  17.405 -59.927  1.00  0.00     0.045 C 
HETATM    3  C   UNL     1       2.255  16.308 -58.990  1.00  0.00     0.119 C 
HETATM    4  N   UNL     1       1.292  16.727 -57.978  1.00  0.00    -0.409 N 
HETATM    5  C   UNL     1       0.390  17.821 -58.325  1.00  0.00     0.119 C 
HETATM    6  C   UNL     1       1.130  18.997 -58.934  1.00  0.00     0.045 C 
ENDROOT
BRANCH   1   7
HETATM    7  N   UNL     1       1.015  18.623 -61.457  1.00  0.00    -0.313 N 
HETATM    8  C   UNL     1       0.753  19.613 -62.403  1.00  0.00     0.224 C 
HETATM    9  O   UNL     1      -0.070  19.464 -63.319  1.00  0.00    -0.273 OA
BRANCH   8  10
HETATM   10  C   UNL     1       1.432  20.944 -62.350  1.00  0.00     0.099 C 
HETATM   11  C   UNL     1       0.458  22.089 -62.535  1.00  0.00     0.014 C 
ENDBRANCH   8  10
BRANCH   7  12
HETATM   12  C   UNL     1       0.503  17.324 -61.826  1.00  0.00     0.037 A 
HETATM   13  C   UNL     1      -0.597  16.788 -61.138  1.00  0.00     0.030 A 
HETATM   14  C   UNL     1      -1.031  15.489 -61.393  1.00  0.00     0.002 A 
HETATM   15  C   UNL     1      -0.362  14.709 -62.333  1.00  0.00     0.000 A 
HETATM   16  C   UNL     1       0.725  15.239 -63.033  1.00  0.00     0.002 A 
HETATM   17  C   UNL     1       1.151  16.548 -62.791  1.00  0.00     0.030 A 
ENDBRANCH   7  12
ENDBRANCH   1   7
BRANCH   4  18
HETATM   18  C   UNL     1       0.622  15.604 -57.280  1.00  0.00     0.153 C 
BRANCH  18  19
HETATM   19  C   UNL     1      -0.819  15.148 -57.675  1.00  0.00     0.175 C 
BRANCH  19  20
HETATM   20  C   UNL     1      -0.966  13.734 -58.181  1.00  0.00     0.013 A 
HETATM   21  C   UNL     1      -0.059  12.912 -58.827  1.00  0.00     0.018 A 
HETATM   22  C   UNL     1      -0.593  11.621 -59.118  1.00  0.00     0.008 A 
HETATM   23  C   UNL     1      -1.886  11.483 -58.670  1.00  0.00     0.050 A 
HETATM   24  S   UNL     1      -2.429  12.881 -57.852  1.00  0.00    -0.104 SA
ENDBRANCH  19  20
BRANCH  19  25
HETATM   25  O   UNL     1      -1.663  15.244 -56.518  1.00  0.00    -0.389 OA
HETATM   26  H   UNL     1      -1.250  14.728 -55.806  1.00  0.00     0.210 HD
ENDBRANCH  19  25
ENDBRANCH  18  19
ENDBRANCH   4  18
TORSDOF 7
ENDMDL
MODEL 8
REMARK VINA RESULT:      -7.6      2.210      3.256
REMARK  7 active torsions:
REMARK  status: ('A' for Active; 'I' for Inactive)
REMARK    1  A    between atoms: C_2  and  C_3 
REMARK       I    between atoms: C_3  and  N_5 
REMARK    2  A    between atoms: N_5  and  C_6 
REMARK    3  A    between atoms: N_5  and  C_20 
REMARK    4  A    between atoms: N_9  and  C_12 
REMARK    5  A    between atoms: C_12  and  C_13 
REMARK    6  A    between atoms: C_13  and  C_14 
REMARK    7  A    between atoms: C_13  and  O_19 
ROOT
HETATM    1  C   UNL     1      -0.335  15.244 -61.724  1.00  0.00     0.096 C 
HETATM    2  C   UNL     1       0.624  15.984 -62.670  1.00  0.00     0.045 C 
HETATM    3  C   UNL     1       1.245  17.297 -62.159  1.00  0.00     0.119 C 
HETATM    4  N   UNL     1       0.462  18.059 -61.193  1.00  0.00    -0.409 N 
HETATM    5  C   UNL     1      -0.376  17.306 -60.266  1.00  0.00     0.119 C 
HETATM    6  C   UNL     1      -1.209  16.255 -60.977  1.00  0.00     0.045 C 
ENDROOT
BRANCH   1   7
HETATM    7  N   UNL     1       0.175  14.113 -60.855  1.00  0.00    -0.313 N 
HETATM    8  C   UNL     1       0.569  12.807 -61.147  1.00  0.00     0.224 C 
HETATM    9  O   UNL     1       0.874  11.987 -60.267  1.00  0.00    -0.273 OA
BRANCH   8  10
HETATM   10  C   UNL     1       0.618  12.301 -62.553  1.00  0.00     0.099 C 
HETATM   11  C   UNL     1       1.811  11.399 -62.793  1.00  0.00     0.014 C 
ENDBRANCH   8  10
BRANCH   7  12
HETATM   12  C   UNL     1       0.467  14.513 -59.499  1.00  0.00     0.037 A 
HETATM   13  C   UNL     1       1.741  15.008 -59.178  1.00  0.00     0.030 A 
HETATM   14  C   UNL     1       2.083  15.285 -57.856  1.00  0.00     0.002 A 
HETATM   15  C   UNL     1       1.158  15.059 -56.841  1.00  0.00     0.000 A 
HETATM   16  C   UNL     1      -0.117  14.579 -57.152  1.00  0.00     0.002 A 
HETATM   17  C   UNL     1      -0.469  14.318 -58.479  1.00  0.00     0.030 A 
ENDBRANCH   7  12
ENDBRANCH   1   7
BRANCH   4  18
HETATM   18  C   UNL     1       1.208  19.167 -60.551  1.00  0.00     0.153 C 
BRANCH  18  19
HETATM   19  C   UNL     1       2.406  18.888 -59.586  1.00  0.00     0.175 C 
BRANCH  19  20
HETATM   20  C   UNL     1       3.602  19.799 -59.711  1.00  0.00     0.013 A 
HETATM   21  C   UNL     1       4.661  20.014 -58.846  1.00  0.00     0.018 A 
HETATM   22  C   UNL     1       5.610  20.950 -59.356  1.00  0.00     0.008 A 
HETATM   23  C   UNL     1       5.261  21.411 -60.605  1.00  0.00     0.050 A 
HETATM   24  S   UNL     1       3.831  20.673 -61.179  1.00  0.00    -0.104 SA
ENDBRANCH  19  20
BRANCH  19  25
HETATM   25  O   UNL     1       1.944  19.023 -58.234  1.00  0.00    -0.389 OA
HETATM   26  H   UNL     1       2.480  18.434 -57.677  1.00  0.00     0.210 HD
ENDBRANCH  19  25
ENDBRANCH  18  19
ENDBRANCH   4  18
TORSDOF 7
ENDMDL
MODEL 9
REMARK VINA RESULT:      -7.4      2.049      2.613
REMARK  7 active torsions:
REMARK  status: ('A' for Active; 'I' for Inactive)
REMARK    1  A    between atoms: C_2  and  C_3 
REMARK       I    between atoms: C_3  and  N_5 
REMARK    2  A    between atoms: N_5  and  C_6 
REMARK    3  A    between atoms: N_5  and  C_20 
REMARK    4  A    between atoms: N_9  and  C_12 
REMARK    5  A    between atoms: C_12  and  C_13 
REMARK    6  A    between atoms: C_13  and  C_14 
REMARK    7  A    between atoms: C_13  and  O_19 
ROOT
HETATM    1  C   UNL     1       1.208  14.688 -59.814  1.00  0.00     0.096 C 
HETATM    2  C   UNL     1       2.197  15.718 -59.249  1.00  0.00     0.045 C 
HETATM    3  C   UNL     1       2.006  17.187 -59.673  1.00  0.00     0.119 C 
HETATM    4  N   UNL     1       1.401  17.417 -60.980  1.00  0.00    -0.409 N 
HETATM    5  C   UNL     1       0.410  16.449 -61.440  1.00  0.00     0.119 C 
HETATM    6  C   UNL     1       0.893  15.020 -61.276  1.00  0.00     0.045 C 
ENDROOT
BRANCH   1   7
HETATM    7  N   UNL     1      -0.003  14.271 -59.004  1.00  0.00    -0.313 N 
HETATM    8  C   UNL     1      -0.702  13.068 -58.911  1.00  0.00     0.224 C 
HETATM    9  O   UNL     1      -1.745  12.949 -58.249  1.00  0.00    -0.273 OA
BRANCH   8  10
HETATM   10  C   UNL     1      -0.250  11.842 -59.638  1.00  0.00     0.099 C 
HETATM   11  C   UNL     1       1.102  11.359 -59.155  1.00  0.00     0.014 C 
ENDBRANCH   8  10
BRANCH   7  12
HETATM   12  C   UNL     1      -0.405  15.249 -58.022  1.00  0.00     0.037 A 
HETATM   13  C   UNL     1      -1.242  16.312 -58.399  1.00  0.00     0.030 A 
HETATM   14  C   UNL     1      -1.543  17.333 -57.500  1.00  0.00     0.002 A 
HETATM   15  C   UNL     1      -1.003  17.305 -56.217  1.00  0.00     0.000 A 
HETATM   16  C   UNL     1      -0.181  16.245 -55.828  1.00  0.00     0.002 A 
HETATM   17  C   UNL     1       0.109  15.210 -56.723  1.00  0.00     0.030 A 
ENDBRANCH   7  12
ENDBRANCH   1   7
BRANCH   4  18
HETATM   18  C   UNL     1       1.011  18.826 -61.225  1.00  0.00     0.153 C 
BRANCH  18  19
HETATM   19  C   UNL     1       2.064  19.894 -61.666  1.00  0.00     0.175 C 
BRANCH  19  20
HETATM   20  C   UNL     1       1.522  21.199 -62.196  1.00  0.00     0.013 A 
HETATM   21  C   UNL     1       0.222  21.587 -62.468  1.00  0.00     0.018 A 
HETATM   22  C   UNL     1       0.134  22.932 -62.940  1.00  0.00     0.008 A 
HETATM   23  C   UNL     1       1.366  23.541 -62.996  1.00  0.00     0.050 A 
HETATM   24  S   UNL     1       2.610  22.517 -62.429  1.00  0.00    -0.104 SA
ENDBRANCH  19  20
BRANCH  19  25
HETATM   25  O   UNL     1       2.875  20.233 -60.531  1.00  0.00    -0.389 OA
HETATM   26  H   UNL     1       2.333  20.117 -59.734  1.00  0.00     0.210 HD
ENDBRANCH  19  25
ENDBRANCH  18  19
ENDBRANCH   4  18
TORSDOF 7
ENDMDL
MODEL 10
REMARK VINA RESULT:      -7.3      2.794      7.074
REMARK  7 active torsions:
REMARK  status: ('A' for Active; 'I' for Inactive)
REMARK    1  A    between atoms: C_2  and  C_3 
REMARK       I    between atoms: C_3  and  N_5 
REMARK    2  A    between atoms: N_5  and  C_6 
REMARK    3  A    between atoms: N_5  and  C_20 
REMARK    4  A    between atoms: N_9  and  C_12 
REMARK    5  A    between atoms: C_12  and  C_13 
REMARK    6  A    between atoms: C_13  and  C_14 
REMARK    7  A    between atoms: C_13  and  O_19 
ROOT
HETATM    1  C   UNL     1       1.802  17.023 -59.040  1.00  0.00     0.096 C 
HETATM    2  C   UNL     1       2.489  15.757 -58.504  1.00  0.00     0.045 C 
HETATM    3  C   UNL     1       1.579  14.613 -58.019  1.00  0.00     0.119 C 
HETATM    4  N   UNL     1       0.270  14.992 -57.500  1.00  0.00    -0.409 N 
HETATM    5  C   UNL     1      -0.375  16.158 -58.095  1.00  0.00     0.119 C 
HETATM    6  C   UNL     1       0.569  17.343 -58.191  1.00  0.00     0.045 C 
ENDROOT
BRANCH   1   7
HETATM    7  N   UNL     1       1.585  17.198 -60.529  1.00  0.00    -0.313 N 
HETATM    8  C   UNL     1       1.113  16.335 -61.519  1.00  0.00     0.224 C 
HETATM    9  O   UNL     1       1.096  16.640 -62.721  1.00  0.00    -0.273 OA
BRANCH   8  10
HETATM   10  C   UNL     1       0.625  14.961 -61.189  1.00  0.00     0.099 C 
HETATM   11  C   UNL     1       0.479  14.097 -62.425  1.00  0.00     0.014 C 
ENDBRANCH   8  10
BRANCH   7  12
HETATM   12  C   UNL     1       1.734  18.562 -60.978  1.00  0.00     0.037 A 
HETATM   13  C   UNL     1       0.650  19.219 -61.583  1.00  0.00     0.030 A 
HETATM   14  C   UNL     1       0.806  20.489 -62.133  1.00  0.00     0.002 A 
HETATM   15  C   UNL     1       2.050  21.111 -62.094  1.00  0.00     0.000 A 
HETATM   16  C   UNL     1       3.132  20.472 -61.482  1.00  0.00     0.002 A 
HETATM   17  C   UNL     1       2.974  19.204 -60.914  1.00  0.00     0.030 A 
ENDBRANCH   7  12
ENDBRANCH   1   7
BRANCH   4  18
HETATM   18  C   UNL     1      -0.650  13.849 -57.289  1.00  0.00     0.153 C 
BRANCH  18  19
HETATM   19  C   UNL     1      -1.429  13.204 -58.480  1.00  0.00     0.175 C 
BRANCH  19  20
HETATM   20  C   UNL     1      -0.885  11.904 -59.020  1.00  0.00     0.013 A 
HETATM   21  C   UNL     1       0.328  11.620 -59.623  1.00  0.00     0.018 A 
HETATM   22  C   UNL     1       0.463  10.242 -59.971  1.00  0.00     0.008 A 
HETATM   23  C   UNL     1      -0.642   9.507 -59.607  1.00  0.00     0.050 A 
HETATM   24  S   UNL     1      -1.805  10.462 -58.800  1.00  0.00    -0.104 SA
ENDBRANCH  19  20
BRANCH  19  25
HETATM   25  O   UNL     1      -2.770  12.924 -58.051  1.00  0.00    -0.389 OA
HETATM   26  H   UNL     1      -2.806  11.993 -57.777  1.00  0.00     0.210 HD
ENDBRANCH  19  25
ENDBRANCH  18  19
ENDBRANCH   4  18
TORSDOF 7
ENDMDL
