MODEL 1
REMARK VINA RESULT:     -10.4      0.000      0.000
REMARK  3 active torsions:
REMARK  status: ('A' for Active; 'I' for Inactive)
REMARK    1  A    between atoms: C_3  and  C_4 
REMARK    2  A    between atoms: C_16  and  O_17 
REMARK    3  A    between atoms: C_24  and  O_25 
ROOT
HETATM    1  C   UNL     1       0.182  18.903 -59.985  1.00  0.00     0.274 C 
HETATM    2  N   UNL     1       1.391  19.298 -59.191  1.00  0.00     0.102 N 
HETATM    3  C   UNL     1       2.663  18.985 -59.882  1.00  0.00     0.265 C 
HETATM    4  C   UNL     1       2.253  18.492 -61.266  1.00  0.00     0.029 C 
HETATM    5  C   UNL     1       3.256  18.609 -62.423  1.00  0.00     0.021 C 
HETATM    6  C   UNL     1       2.144  16.970 -61.019  1.00  0.00     0.032 C 
HETATM    7  C   UNL     1       0.833  16.618 -60.267  1.00  0.00     0.023 C 
HETATM    8  C   UNL     1       0.063  16.713 -61.711  1.00  0.00    -0.015 C 
HETATM    9  C   UNL     1      -0.029  17.959 -62.215  1.00  0.00     0.011 C 
HETATM   10  C   UNL     1       0.771  18.998 -61.452  1.00  0.00     0.119 C 
HETATM   11  C   UNL     1       1.267  15.644 -59.122  1.00  0.00     0.240 C 
HETATM   12  C   UNL     1       1.383  16.244 -57.640  1.00  0.00     0.076 C 
HETATM   13  C   UNL     1       0.122  16.869 -57.111  1.00  0.00    -0.049 C 
HETATM   14  C   UNL     1      -0.422  16.621 -55.840  1.00  0.00     0.010 C 
HETATM   15  C   UNL     1      -1.737  17.010 -55.536  1.00  0.00     0.037 C 
HETATM   16  C   UNL     1      -2.468  17.747 -56.454  1.00  0.00     0.066 C 
HETATM   17  C   UNL     1      -1.879  18.152 -57.646  1.00  0.00     0.045 C 
HETATM   18  C   UNL     1      -0.613  17.612 -58.019  1.00  0.00    -0.037 C 
HETATM   19  C   UNL     1      -0.264  17.455 -59.521  1.00  0.00     0.036 C 
HETATM   20  C   UNL     1      -1.480  16.322 -59.723  1.00  0.00     0.048 C 
HETATM   21  C   UNL     1      -1.033  14.860 -59.177  1.00  0.00     0.273 C 
HETATM   22  N   UNL     1       0.391  14.503 -59.069  1.00  0.00     0.090 N 
HETATM   23  C   UNL     1       0.924  13.443 -59.903  1.00  0.00     0.310 C 
HETATM   24  H   UNL     1       1.410  18.956 -58.233  1.00  0.00     0.317 HD
ENDROOT
BRANCH   3  25
HETATM   25  C   UNL     1       3.688  20.050 -59.499  1.00  0.00    -0.025 C 
HETATM   26  C   UNL     1       3.876  21.041 -60.490  1.00  0.00     0.009 C 
HETATM   27  C   UNL     1       5.124  21.151 -61.090  1.00  0.00     0.001 C 
HETATM   28  C   UNL     1       6.190  20.408 -60.591  1.00  0.00     0.000 C 
HETATM   29  C   UNL     1       6.044  19.685 -59.403  1.00  0.00     0.001 C 
HETATM   30  C   UNL     1       4.797  19.582 -58.789  1.00  0.00     0.009 C 
ENDBRANCH   3  25
BRANCH  10  31
HETATM   31  O   UNL     1       0.592  20.335 -61.920  1.00  0.00    -0.378 OA
HETATM   32  C   UNL     1       0.327  20.541 -63.298  1.00  0.00     0.203 C 
ENDBRANCH  10  31
BRANCH  16  33
HETATM   33  O   UNL     1      -3.800  17.936 -56.216  1.00  0.00    -0.361 OA
HETATM   34  H   UNL     1      -4.082  18.752 -56.667  1.00  0.00     0.217 HD
ENDBRANCH  16  33
TORSDOF 3
ENDMDL
MODEL 2
REMARK VINA RESULT:      -8.7      1.494      2.150
REMARK  3 active torsions:
REMARK  status: ('A' for Active; 'I' for Inactive)
REMARK    1  A    between atoms: C_3  and  C_4 
REMARK    2  A    between atoms: C_16  and  O_17 
REMARK    3  A    between atoms: C_24  and  O_25 
ROOT
HETATM    1  C   UNL     1       0.122  17.744 -59.204  1.00  0.00     0.274 C 
HETATM    2  N   UNL     1       1.613  17.887 -59.145  1.00  0.00     0.102 N 
HETATM    3  C   UNL     1       2.300  17.248 -60.292  1.00  0.00     0.265 C 
HETATM    4  C   UNL     1       1.181  16.791 -61.221  1.00  0.00     0.029 C 
HETATM    5  C   UNL     1       1.485  16.607 -62.716  1.00  0.00     0.021 C 
HETATM    6  C   UNL     1       0.940  15.352 -60.710  1.00  0.00     0.032 C 
HETATM    7  C   UNL     1       0.131  15.358 -59.384  1.00  0.00     0.023 C 
HETATM    8  C   UNL     1      -1.220  15.552 -60.292  1.00  0.00    -0.015 C 
HETATM    9  C   UNL     1      -1.325  16.755 -60.888  1.00  0.00     0.011 C 
HETATM   10  C   UNL     1      -0.083  17.619 -60.768  1.00  0.00     0.119 C 
HETATM   11  C   UNL     1       0.893  14.373 -58.437  1.00  0.00     0.240 C 
HETATM   12  C   UNL     1       1.830  15.008 -57.302  1.00  0.00     0.076 C 
HETATM   13  C   UNL     1       1.128  15.939 -56.352  1.00  0.00    -0.049 C 
HETATM   14  C   UNL     1       1.247  15.894 -54.953  1.00  0.00     0.010 C 
HETATM   15  C   UNL     1       0.347  16.596 -54.134  1.00  0.00     0.037 C 
HETATM   16  C   UNL     1      -0.597  17.432 -54.708  1.00  0.00     0.066 C 
HETATM   17  C   UNL     1      -0.612  17.623 -56.084  1.00  0.00     0.045 C 
HETATM   18  C   UNL     1       0.186  16.783 -56.915  1.00  0.00    -0.037 C 
HETATM   19  C   UNL     1      -0.286  16.467 -58.357  1.00  0.00     0.036 C 
HETATM   20  C   UNL     1      -1.623  15.641 -57.779  1.00  0.00     0.048 C 
HETATM   21  C   UNL     1      -1.232  14.146 -57.279  1.00  0.00     0.273 C 
HETATM   22  N   UNL     1      -0.029  13.473 -57.795  1.00  0.00     0.090 N 
HETATM   23  C   UNL     1      -0.175  12.274 -58.599  1.00  0.00     0.310 C 
HETATM   24  H   UNL     1       2.042  17.603 -58.267  1.00  0.00     0.317 HD
ENDROOT
BRANCH   3  25
HETATM   25  C   UNL     1       3.551  18.064 -60.613  1.00  0.00    -0.025 C 
HETATM   26  C   UNL     1       4.629  17.822 -59.731  1.00  0.00     0.009 C 
HETATM   27  C   UNL     1       5.084  18.868 -58.937  1.00  0.00     0.001 C 
HETATM   28  C   UNL     1       4.587  20.151 -59.148  1.00  0.00     0.000 C 
HETATM   29  C   UNL     1       3.763  20.411 -60.247  1.00  0.00     0.001 C 
HETATM   30  C   UNL     1       3.314  19.368 -61.055  1.00  0.00     0.009 C 
ENDBRANCH   3  25
BRANCH  10  31
HETATM   31  O   UNL     1      -0.229  18.934 -61.307  1.00  0.00    -0.378 OA
HETATM   32  C   UNL     1       0.053  19.138 -62.681  1.00  0.00     0.203 C 
ENDBRANCH  10  31
BRANCH  16  33
HETATM   33  O   UNL     1      -1.580  17.940 -53.906  1.00  0.00    -0.361 OA
HETATM   34  H   UNL     1      -1.586  17.441 -53.070  1.00  0.00     0.217 HD
ENDBRANCH  16  33
TORSDOF 3
ENDMDL
MODEL 3
REMARK VINA RESULT:      -8.2     15.865     19.264
REMARK  3 active torsions:
REMARK  status: ('A' for Active; 'I' for Inactive)
REMARK    1  A    between atoms: C_3  and  C_4 
REMARK    2  A    between atoms: C_16  and  O_17 
REMARK    3  A    between atoms: C_24  and  O_25 
ROOT
HETATM    1  C   UNL     1      12.539   3.998 -58.672  1.00  0.00     0.274 C 
HETATM    2  N   UNL     1      11.264   4.536 -59.247  1.00  0.00     0.102 N 
HETATM    3  C   UNL     1      10.168   3.540 -59.252  1.00  0.00     0.265 C 
HETATM    4  C   UNL     1      10.724   2.333 -58.506  1.00  0.00     0.029 C 
HETATM    5  C   UNL     1       9.744   1.359 -57.833  1.00  0.00     0.021 C 
HETATM    6  C   UNL     1      11.323   1.512 -59.671  1.00  0.00     0.032 C 
HETATM    7  C   UNL     1      12.673   2.116 -60.143  1.00  0.00     0.023 C 
HETATM    8  C   UNL     1      13.378   1.344 -58.880  1.00  0.00    -0.015 C 
HETATM    9  C   UNL     1      13.061   1.846 -57.671  1.00  0.00     0.011 C 
HETATM   10  C   UNL     1      11.961   2.891 -57.701  1.00  0.00     0.119 C 
HETATM   11  C   UNL     1      12.575   2.167 -61.704  1.00  0.00     0.240 C 
HETATM   12  C   UNL     1      12.260   3.585 -62.382  1.00  0.00     0.076 C 
HETATM   13  C   UNL     1      13.244   4.674 -62.056  1.00  0.00    -0.049 C 
HETATM   14  C   UNL     1      13.832   5.531 -63.000  1.00  0.00     0.010 C 
HETATM   15  C   UNL     1      14.946   6.317 -62.660  1.00  0.00     0.037 C 
HETATM   16  C   UNL     1      15.401   6.336 -61.351  1.00  0.00     0.066 C 
HETATM   17  C   UNL     1      14.720   5.629 -60.368  1.00  0.00     0.045 C 
HETATM   18  C   UNL     1      13.702   4.706 -60.749  1.00  0.00    -0.037 C 
HETATM   19  C   UNL     1      13.432   3.460 -59.867  1.00  0.00     0.036 C 
HETATM   20  C   UNL     1      14.953   2.846 -60.203  1.00  0.00     0.048 C 
HETATM   21  C   UNL     1      15.005   2.146 -61.667  1.00  0.00     0.273 C 
HETATM   22  N   UNL     1      13.775   1.648 -62.304  1.00  0.00     0.090 N 
HETATM   23  C   UNL     1      13.623   0.224 -62.539  1.00  0.00     0.310 C 
HETATM   24  H   UNL     1      11.352   4.978 -60.159  1.00  0.00     0.317 HD
ENDROOT
BRANCH   3  25
HETATM   25  C   UNL     1       8.848   4.281 -59.046  1.00  0.00    -0.025 C 
HETATM   26  C   UNL     1       8.783   4.998 -57.829  1.00  0.00     0.009 C 
HETATM   27  C   UNL     1       7.834   4.620 -56.887  1.00  0.00     0.001 C 
HETATM   28  C   UNL     1       6.874   3.671 -57.227  1.00  0.00     0.000 C 
HETATM   29  C   UNL     1       6.769   3.223 -58.547  1.00  0.00     0.001 C 
HETATM   30  C   UNL     1       7.710   3.608 -59.499  1.00  0.00     0.009 C 
ENDBRANCH   3  25
BRANCH  10  31
HETATM   31  O   UNL     1      11.695   3.499 -56.436  1.00  0.00    -0.378 OA
HETATM   32  C   UNL     1      12.119   2.829 -55.260  1.00  0.00     0.203 C 
ENDBRANCH  10  31
BRANCH  16  33
HETATM   33  O   UNL     1      16.597   6.945 -61.092  1.00  0.00    -0.361 OA
HETATM   34  H   UNL     1      17.182   6.302 -60.653  1.00  0.00     0.217 HD
ENDBRANCH  16  33
TORSDOF 3
ENDMDL
MODEL 4
REMARK VINA RESULT:      -8.1     14.721     17.192
REMARK  3 active torsions:
REMARK  status: ('A' for Active; 'I' for Inactive)
REMARK    1  A    between atoms: C_3  and  C_4 
REMARK    2  A    between atoms: C_16  and  O_17 
REMARK    3  A    between atoms: C_24  and  O_25 
ROOT
HETATM    1  C   UNL     1     -14.996  14.819 -66.408  1.00  0.00     0.274 C 
HETATM    2  N   UNL     1     -14.315  16.016 -66.998  1.00  0.00     0.102 N 
HETATM    3  C   UNL     1     -12.886  15.773 -67.307  1.00  0.00     0.265 C 
HETATM    4  C   UNL     1     -12.668  14.289 -67.037  1.00  0.00     0.029 C 
HETATM    5  C   UNL     1     -11.518  13.564 -67.753  1.00  0.00     0.021 C 
HETATM    6  C   UNL     1     -12.225  14.318 -65.555  1.00  0.00     0.032 C 
HETATM    7  C   UNL     1     -13.440  14.534 -64.613  1.00  0.00     0.023 C 
HETATM    8  C   UNL     1     -13.753  12.932 -64.768  1.00  0.00    -0.015 C 
HETATM    9  C   UNL     1     -14.191  12.564 -65.988  1.00  0.00     0.011 C 
HETATM   10  C   UNL     1     -14.116  13.661 -67.033  1.00  0.00     0.119 C 
HETATM   11  C   UNL     1     -12.987  15.647 -63.611  1.00  0.00     0.240 C 
HETATM   12  C   UNL     1     -13.532  17.134 -63.856  1.00  0.00     0.076 C 
HETATM   13  C   UNL     1     -15.031  17.263 -63.873  1.00  0.00    -0.049 C 
HETATM   14  C   UNL     1     -15.757  18.236 -63.168  1.00  0.00     0.010 C 
HETATM   15  C   UNL     1     -17.147  18.112 -63.003  1.00  0.00     0.037 C 
HETATM   16  C   UNL     1     -17.827  17.083 -63.635  1.00  0.00     0.066 C 
HETATM   17  C   UNL     1     -17.145  16.216 -64.479  1.00  0.00     0.045 C 
HETATM   18  C   UNL     1     -15.720  16.243 -64.507  1.00  0.00    -0.037 C 
HETATM   19  C   UNL     1     -14.938  14.944 -64.828  1.00  0.00     0.036 C 
HETATM   20  C   UNL     1     -15.495  14.217 -63.427  1.00  0.00     0.048 C 
HETATM   21  C   UNL     1     -14.672  14.724 -62.122  1.00  0.00     0.273 C 
HETATM   22  N   UNL     1     -13.314  15.274 -62.259  1.00  0.00     0.090 N 
HETATM   23  C   UNL     1     -12.195  14.565 -61.668  1.00  0.00     0.310 C 
HETATM   24  H   UNL     1     -14.426  16.880 -66.473  1.00  0.00     0.317 HD
ENDROOT
BRANCH   3  25
HETATM   25  C   UNL     1     -12.519  16.595 -68.541  1.00  0.00    -0.025 C 
HETATM   26  C   UNL     1     -13.412  17.660 -68.801  1.00  0.00     0.009 C 
HETATM   27  C   UNL     1     -14.146  17.637 -69.981  1.00  0.00     0.001 C 
HETATM   28  C   UNL     1     -13.864  16.669 -70.941  1.00  0.00     0.000 C 
HETATM   29  C   UNL     1     -12.753  15.834 -70.789  1.00  0.00     0.001 C 
HETATM   30  C   UNL     1     -12.006  15.862 -69.614  1.00  0.00     0.009 C 
ENDBRANCH   3  25
BRANCH  10  31
HETATM   31  O   UNL     1     -14.676  13.306 -68.297  1.00  0.00    -0.378 OA
HETATM   32  C   UNL     1     -14.802  11.931 -68.621  1.00  0.00     0.203 C 
ENDBRANCH  10  31
BRANCH  16  33
HETATM   33  O   UNL     1     -19.133  16.870 -63.297  1.00  0.00    -0.361 OA
HETATM   34  H   UNL     1     -19.629  17.696 -63.441  1.00  0.00     0.217 HD
ENDBRANCH  16  33
TORSDOF 3
ENDMDL
MODEL 5
REMARK VINA RESULT:      -7.6     16.542     20.010
REMARK  3 active torsions:
REMARK  status: ('A' for Active; 'I' for Inactive)
REMARK    1  A    between atoms: C_3  and  C_4 
REMARK    2  A    between atoms: C_16  and  O_17 
REMARK    3  A    between atoms: C_24  and  O_25 
ROOT
HETATM    1  C   UNL     1      11.587   2.897 -60.535  1.00  0.00     0.274 C 
HETATM    2  N   UNL     1      10.574   1.991 -59.903  1.00  0.00     0.102 N 
HETATM    3  C   UNL     1      10.179   2.426 -58.543  1.00  0.00     0.265 C 
HETATM    4  C   UNL     1      10.867   3.771 -58.341  1.00  0.00     0.029 C 
HETATM    5  C   UNL     1      10.273   4.765 -57.332  1.00  0.00     0.021 C 
HETATM    6  C   UNL     1      12.198   3.329 -57.690  1.00  0.00     0.032 C 
HETATM    7  C   UNL     1      13.172   2.745 -58.748  1.00  0.00     0.023 C 
HETATM    8  C   UNL     1      13.562   4.290 -59.138  1.00  0.00    -0.015 C 
HETATM    9  C   UNL     1      12.582   4.974 -59.758  1.00  0.00     0.011 C 
HETATM   10  C   UNL     1      11.247   4.254 -59.794  1.00  0.00     0.119 C 
HETATM   11  C   UNL     1      13.714   1.420 -58.118  1.00  0.00     0.240 C 
HETATM   12  C   UNL     1      13.090   0.039 -58.640  1.00  0.00     0.076 C 
HETATM   13  C   UNL     1      13.222  -0.195 -60.120  1.00  0.00    -0.049 C 
HETATM   14  C   UNL     1      13.675  -1.389 -60.704  1.00  0.00     0.010 C 
HETATM   15  C   UNL     1      14.044  -1.429 -62.059  1.00  0.00     0.037 C 
HETATM   16  C   UNL     1      13.853  -0.313 -62.858  1.00  0.00     0.066 C 
HETATM   17  C   UNL     1      13.240   0.819 -62.335  1.00  0.00     0.045 C 
HETATM   18  C   UNL     1      13.027   0.912 -60.928  1.00  0.00    -0.037 C 
HETATM   19  C   UNL     1      13.029   2.304 -60.247  1.00  0.00     0.036 C 
HETATM   20  C   UNL     1      14.646   2.528 -60.623  1.00  0.00     0.048 C 
HETATM   21  C   UNL     1      15.615   1.716 -59.605  1.00  0.00     0.273 C 
HETATM   22  N   UNL     1      15.144   1.340 -58.262  1.00  0.00     0.090 N 
HETATM   23  C   UNL     1      15.781   1.922 -57.095  1.00  0.00     0.310 C 
HETATM   24  H   UNL     1      10.815   1.002 -59.908  1.00  0.00     0.317 HD
ENDROOT
BRANCH   3  25
HETATM   25  C   UNL     1       8.716   2.046 -58.328  1.00  0.00    -0.025 C 
HETATM   26  C   UNL     1       7.811   2.801 -59.109  1.00  0.00     0.009 C 
HETATM   27  C   UNL     1       6.897   3.621 -58.459  1.00  0.00     0.001 C 
HETATM   28  C   UNL     1       6.783   3.552 -57.073  1.00  0.00     0.000 C 
HETATM   29  C   UNL     1       7.464   2.559 -56.363  1.00  0.00     0.001 C 
HETATM   30  C   UNL     1       8.372   1.725 -57.012  1.00  0.00     0.009 C 
ENDBRANCH   3  25
BRANCH  10  31
HETATM   31  O   UNL     1      10.235   4.930 -60.542  1.00  0.00    -0.378 OA
HETATM   32  C   UNL     1      10.127   4.663 -61.931  1.00  0.00     0.203 C 
ENDBRANCH  10  31
BRANCH  16  33
HETATM   33  O   UNL     1      14.401  -0.314 -64.110  1.00  0.00    -0.361 OA
HETATM   34  H   UNL     1      14.152   0.515 -64.557  1.00  0.00     0.217 HD
ENDBRANCH  16  33
TORSDOF 3
ENDMDL
MODEL 6
REMARK VINA RESULT:      -7.6     16.560     18.958
REMARK  3 active torsions:
REMARK  status: ('A' for Active; 'I' for Inactive)
REMARK    1  A    between atoms: C_3  and  C_4 
REMARK    2  A    between atoms: C_16  and  O_17 
REMARK    3  A    between atoms: C_24  and  O_25 
ROOT
HETATM    1  C   UNL     1      13.801   4.383 -60.665  1.00  0.00     0.274 C 
HETATM    2  N   UNL     1      14.124   5.364 -59.579  1.00  0.00     0.102 N 
HETATM    3  C   UNL     1      15.317   4.979 -58.789  1.00  0.00     0.265 C 
HETATM    4  C   UNL     1      15.884   3.754 -59.497  1.00  0.00     0.029 C 
HETATM    5  C   UNL     1      17.374   3.420 -59.327  1.00  0.00     0.021 C 
HETATM    6  C   UNL     1      15.158   2.614 -58.745  1.00  0.00     0.032 C 
HETATM    7  C   UNL     1      13.687   2.478 -59.222  1.00  0.00     0.023 C 
HETATM    8  C   UNL     1      14.256   1.634 -60.507  1.00  0.00    -0.015 C 
HETATM    9  C   UNL     1      14.950   2.370 -61.397  1.00  0.00     0.011 C 
HETATM   10  C   UNL     1      15.241   3.787 -60.938  1.00  0.00     0.119 C 
HETATM   11  C   UNL     1      12.840   2.375 -57.910  1.00  0.00     0.240 C 
HETATM   12  C   UNL     1      12.053   3.686 -57.429  1.00  0.00     0.076 C 
HETATM   13  C   UNL     1      11.081   4.244 -58.432  1.00  0.00    -0.049 C 
HETATM   14  C   UNL     1       9.759   4.617 -58.143  1.00  0.00     0.010 C 
HETATM   15  C   UNL     1       8.837   4.850 -59.178  1.00  0.00     0.037 C 
HETATM   16  C   UNL     1       9.261   4.823 -60.497  1.00  0.00     0.066 C 
HETATM   17  C   UNL     1      10.605   4.628 -60.791  1.00  0.00     0.045 C 
HETATM   18  C   UNL     1      11.497   4.226 -59.753  1.00  0.00    -0.037 C 
HETATM   19  C   UNL     1      12.732   3.357 -60.102  1.00  0.00     0.036 C 
HETATM   20  C   UNL     1      11.750   2.085 -60.574  1.00  0.00     0.048 C 
HETATM   21  C   UNL     1      11.182   1.262 -59.295  1.00  0.00     0.273 C 
HETATM   22  N   UNL     1      11.889   1.299 -58.005  1.00  0.00     0.090 N 
HETATM   23  C   UNL     1      12.481   0.082 -57.483  1.00  0.00     0.310 C 
HETATM   24  H   UNL     1      13.349   5.602 -58.965  1.00  0.00     0.317 HD
ENDROOT
BRANCH   3  25
HETATM   25  C   UNL     1      16.029   6.256 -58.347  1.00  0.00    -0.025 C 
HETATM   26  C   UNL     1      16.866   6.814 -59.340  1.00  0.00     0.009 C 
HETATM   27  C   UNL     1      18.232   6.881 -59.096  1.00  0.00     0.001 C 
HETATM   28  C   UNL     1      18.716   6.559 -57.831  1.00  0.00     0.000 C 
HETATM   29  C   UNL     1      17.825   6.327 -56.779  1.00  0.00     0.001 C 
HETATM   30  C   UNL     1      16.453   6.271 -57.016  1.00  0.00     0.009 C 
ENDBRANCH   3  25
BRANCH  10  31
HETATM   31  O   UNL     1      15.884   4.600 -61.920  1.00  0.00    -0.378 OA
HETATM   32  C   UNL     1      15.102   5.542 -62.637  1.00  0.00     0.203 C 
ENDBRANCH  10  31
BRANCH  16  33
HETATM   33  O   UNL     1       8.313   4.852 -61.480  1.00  0.00    -0.361 OA
HETATM   34  H   UNL     1       8.573   5.518 -62.141  1.00  0.00     0.217 HD
ENDBRANCH  16  33
TORSDOF 3
ENDMDL
MODEL 7
REMARK VINA RESULT:      -7.5     16.765     19.785
REMARK  3 active torsions:
REMARK  status: ('A' for Active; 'I' for Inactive)
REMARK    1  A    between atoms: C_3  and  C_4 
REMARK    2  A    between atoms: C_16  and  O_17 
REMARK    3  A    between atoms: C_24  and  O_25 
ROOT
HETATM    1  C   UNL     1      13.964   3.128 -58.965  1.00  0.00     0.274 C 
HETATM    2  N   UNL     1      12.918   4.152 -58.642  1.00  0.00     0.102 N 
HETATM    3  C   UNL     1      11.953   4.359 -59.747  1.00  0.00     0.265 C 
HETATM    4  C   UNL     1      12.308   3.305 -60.789  1.00  0.00     0.029 C 
HETATM    5  C   UNL     1      11.227   2.843 -61.778  1.00  0.00     0.021 C 
HETATM    6  C   UNL     1      13.312   4.084 -61.670  1.00  0.00     0.032 C 
HETATM    7  C   UNL     1      14.700   4.185 -60.982  1.00  0.00     0.023 C 
HETATM    8  C   UNL     1      14.996   2.664 -61.516  1.00  0.00    -0.015 C 
HETATM    9  C   UNL     1      14.264   1.707 -60.914  1.00  0.00     0.011 C 
HETATM   10  C   UNL     1      13.170   2.239 -60.007  1.00  0.00     0.119 C 
HETATM   11  C   UNL     1      15.119   5.685 -61.126  1.00  0.00     0.240 C 
HETATM   12  C   UNL     1      14.955   6.630 -59.842  1.00  0.00     0.076 C 
HETATM   13  C   UNL     1      15.702   6.171 -58.620  1.00  0.00    -0.049 C 
HETATM   14  C   UNL     1      16.512   6.995 -57.821  1.00  0.00     0.010 C 
HETATM   15  C   UNL     1      17.397   6.437 -56.883  1.00  0.00     0.037 C 
HETATM   16  C   UNL     1      17.391   5.069 -56.659  1.00  0.00     0.066 C 
HETATM   17  C   UNL     1      16.471   4.262 -57.316  1.00  0.00     0.045 C 
HETATM   18  C   UNL     1      15.699   4.807 -58.384  1.00  0.00    -0.037 C 
HETATM   19  C   UNL     1      15.234   3.883 -59.539  1.00  0.00     0.036 C 
HETATM   20  C   UNL     1      16.818   3.622 -60.017  1.00  0.00     0.048 C 
HETATM   21  C   UNL     1      17.397   4.873 -60.875  1.00  0.00     0.273 C 
HETATM   22  N   UNL     1      16.482   5.788 -61.578  1.00  0.00     0.090 N 
HETATM   23  C   UNL     1      16.510   5.847 -63.027  1.00  0.00     0.310 C 
HETATM   24  H   UNL     1      13.273   5.043 -58.304  1.00  0.00     0.317 HD
ENDROOT
BRANCH   3  25
HETATM   25  C   UNL     1      10.594   4.696 -59.136  1.00  0.00    -0.025 C 
HETATM   26  C   UNL     1      10.037   3.644 -58.372  1.00  0.00     0.009 C 
HETATM   27  C   UNL     1       8.845   3.073 -58.800  1.00  0.00     0.001 C 
HETATM   28  C   UNL     1       8.151   3.652 -59.858  1.00  0.00     0.000 C 
HETATM   29  C   UNL     1       8.565   4.882 -60.377  1.00  0.00     0.001 C 
HETATM   30  C   UNL     1       9.753   5.467 -59.943  1.00  0.00     0.009 C 
ENDBRANCH   3  25
BRANCH  10  31
HETATM   31  O   UNL     1      12.463   1.230 -59.286  1.00  0.00    -0.378 OA
HETATM   32  C   UNL     1      12.561  -0.114 -59.730  1.00  0.00     0.203 C 
ENDBRANCH  10  31
BRANCH  16  33
HETATM   33  O   UNL     1      18.391   4.536 -55.896  1.00  0.00    -0.361 OA
HETATM   34  H   UNL     1      19.197   5.067 -56.028  1.00  0.00     0.217 HD
ENDBRANCH  16  33
TORSDOF 3
ENDMDL
MODEL 8
REMARK VINA RESULT:      -7.3     15.476     18.429
REMARK  3 active torsions:
REMARK  status: ('A' for Active; 'I' for Inactive)
REMARK    1  A    between atoms: C_3  and  C_4 
REMARK    2  A    between atoms: C_16  and  O_17 
REMARK    3  A    between atoms: C_24  and  O_25 
ROOT
HETATM    1  C   UNL     1     -13.356  15.315 -66.666  1.00  0.00     0.274 C 
HETATM    2  N   UNL     1     -13.981  16.556 -66.103  1.00  0.00     0.102 N 
HETATM    3  C   UNL     1     -14.985  16.271 -65.052  1.00  0.00     0.265 C 
HETATM    4  C   UNL     1     -14.900  14.768 -64.818  1.00  0.00     0.029 C 
HETATM    5  C   UNL     1     -15.354  14.199 -63.465  1.00  0.00     0.021 C 
HETATM    6  C   UNL     1     -15.964  14.251 -65.815  1.00  0.00     0.032 C 
HETATM    7  C   UNL     1     -15.425  14.275 -67.270  1.00  0.00     0.023 C 
HETATM    8  C   UNL     1     -14.662  12.863 -66.934  1.00  0.00    -0.015 C 
HETATM    9  C   UNL     1     -13.633  12.974 -66.072  1.00  0.00     0.011 C 
HETATM   10  C   UNL     1     -13.508  14.342 -65.427  1.00  0.00     0.119 C 
HETATM   11  C   UNL     1     -16.564  14.931 -68.118  1.00  0.00     0.240 C 
HETATM   12  C   UNL     1     -16.384  16.466 -68.542  1.00  0.00     0.076 C 
HETATM   13  C   UNL     1     -15.140  16.761 -69.336  1.00  0.00    -0.049 C 
HETATM   14  C   UNL     1     -15.106  17.518 -70.518  1.00  0.00     0.010 C 
HETATM   15  C   UNL     1     -13.971  17.503 -71.346  1.00  0.00     0.037 C 
HETATM   16  C   UNL     1     -12.831  16.827 -70.940  1.00  0.00     0.066 C 
HETATM   17  C   UNL     1     -12.791  16.221 -69.690  1.00  0.00     0.045 C 
HETATM   18  C   UNL     1     -13.994  16.095 -68.935  1.00  0.00    -0.037 C 
HETATM   19  C   UNL     1     -14.165  14.899 -67.964  1.00  0.00     0.036 C 
HETATM   20  C   UNL     1     -14.142  13.813 -69.239  1.00  0.00     0.048 C 
HETATM   21  C   UNL     1     -15.574  13.759 -70.004  1.00  0.00     0.273 C 
HETATM   22  N   UNL     1     -16.808  14.168 -69.314  1.00  0.00     0.090 N 
HETATM   23  C   UNL     1     -17.840  13.181 -69.057  1.00  0.00     0.310 C 
HETATM   24  H   UNL     1     -14.357  17.202 -66.793  1.00  0.00     0.317 HD
ENDROOT
BRANCH   3  25
HETATM   25  C   UNL     1     -14.948  17.412 -64.036  1.00  0.00    -0.025 C 
HETATM   26  C   UNL     1     -13.836  17.362 -63.165  1.00  0.00     0.009 C 
HETATM   27  C   UNL     1     -14.065  17.183 -61.807  1.00  0.00     0.001 C 
HETATM   28  C   UNL     1     -15.369  17.225 -61.323  1.00  0.00     0.000 C 
HETATM   29  C   UNL     1     -16.418  17.602 -62.167  1.00  0.00     0.001 C 
HETATM   30  C   UNL     1     -16.192  17.796 -63.528  1.00  0.00     0.009 C 
ENDBRANCH   3  25
BRANCH  10  31
HETATM   31  O   UNL     1     -12.358  14.494 -64.594  1.00  0.00    -0.378 OA
HETATM   32  C   UNL     1     -11.805  13.340 -63.985  1.00  0.00     0.203 C 
ENDBRANCH  10  31
BRANCH  16  33
HETATM   33  O   UNL     1     -11.822  16.661 -71.846  1.00  0.00    -0.361 OA
HETATM   34  H   UNL     1     -11.332  15.851 -71.618  1.00  0.00     0.217 HD
ENDBRANCH  16  33
TORSDOF 3
ENDMDL
MODEL 9
REMARK VINA RESULT:      -7.2     16.122     18.397
REMARK  3 active torsions:
REMARK  status: ('A' for Active; 'I' for Inactive)
REMARK    1  A    between atoms: C_3  and  C_4 
REMARK    2  A    between atoms: C_16  and  O_17 
REMARK    3  A    between atoms: C_24  and  O_25 
ROOT
HETATM    1  C   UNL     1      11.636   3.439 -60.566  1.00  0.00     0.274 C 
HETATM    2  N   UNL     1      12.296   4.651 -59.981  1.00  0.00     0.102 N 
HETATM    3  C   UNL     1      13.758   4.488 -59.813  1.00  0.00     0.265 C 
HETATM    4  C   UNL     1      14.086   3.148 -60.461  1.00  0.00     0.029 C 
HETATM    5  C   UNL     1      15.512   2.901 -60.976  1.00  0.00     0.021 C 
HETATM    6  C   UNL     1      13.955   2.193 -59.253  1.00  0.00     0.032 C 
HETATM    7  C   UNL     1      12.465   1.913 -58.920  1.00  0.00     0.023 C 
HETATM    8  C   UNL     1      12.474   0.812 -60.134  1.00  0.00    -0.015 C 
HETATM    9  C   UNL     1      12.566   1.342 -61.369  1.00  0.00     0.011 C 
HETATM   10  C   UNL     1      12.847   2.833 -61.386  1.00  0.00     0.119 C 
HETATM   11  C   UNL     1      12.352   2.092 -57.369  1.00  0.00     0.240 C 
HETATM   12  C   UNL     1      11.714   3.458 -56.824  1.00  0.00     0.076 C 
HETATM   13  C   UNL     1      10.321   3.745 -57.314  1.00  0.00    -0.049 C 
HETATM   14  C   UNL     1       9.251   4.141 -56.495  1.00  0.00     0.010 C 
HETATM   15  C   UNL     1       7.931   4.106 -56.975  1.00  0.00     0.037 C 
HETATM   16  C   UNL     1       7.688   3.788 -58.302  1.00  0.00     0.066 C 
HETATM   17  C   UNL     1       8.752   3.566 -59.169  1.00  0.00     0.045 C 
HETATM   18  C   UNL     1      10.070   3.436 -58.640  1.00  0.00    -0.037 C 
HETATM   19  C   UNL     1      11.102   2.542 -59.373  1.00  0.00     0.036 C 
HETATM   20  C   UNL     1      10.193   1.171 -59.060  1.00  0.00     0.048 C 
HETATM   21  C   UNL     1      10.403   0.649 -57.537  1.00  0.00     0.273 C 
HETATM   22  N   UNL     1      11.620   0.999 -56.786  1.00  0.00     0.090 N 
HETATM   23  C   UNL     1      12.543  -0.050 -56.398  1.00  0.00     0.310 C 
HETATM   24  H   UNL     1      11.873   5.003 -59.125  1.00  0.00     0.317 HD
ENDROOT
BRANCH   3  25
HETATM   25  C   UNL     1      14.417   5.850 -60.022  1.00  0.00    -0.025 C 
HETATM   26  C   UNL     1      14.659   6.163 -61.379  1.00  0.00     0.009 C 
HETATM   27  C   UNL     1      15.974   6.319 -61.799  1.00  0.00     0.001 C 
HETATM   28  C   UNL     1      16.996   6.331 -60.854  1.00  0.00     0.000 C 
HETATM   29  C   UNL     1      16.689   6.347 -59.490  1.00  0.00     0.001 C 
HETATM   30  C   UNL     1      15.370   6.204 -59.063  1.00  0.00     0.009 C 
ENDBRANCH   3  25
BRANCH  10  31
HETATM   31  O   UNL     1      12.841   3.416 -62.690  1.00  0.00    -0.378 OA
HETATM   32  C   UNL     1      11.721   4.194 -63.079  1.00  0.00     0.203 C 
ENDBRANCH  10  31
BRANCH  16  33
HETATM   33  O   UNL     1       6.397   3.567 -58.687  1.00  0.00    -0.361 OA
HETATM   34  H   UNL     1       6.153   4.236 -59.351  1.00  0.00     0.217 HD
ENDBRANCH  16  33
TORSDOF 3
ENDMDL
MODEL 10
REMARK VINA RESULT:      -7.2     15.462     18.017
REMARK  3 active torsions:
REMARK  status: ('A' for Active; 'I' for Inactive)
REMARK    1  A    between atoms: C_3  and  C_4 
REMARK    2  A    between atoms: C_16  and  O_17 
REMARK    3  A    between atoms: C_24  and  O_25 
ROOT
HETATM    1  C   UNL     1     -14.343  13.401 -67.143  1.00  0.00     0.274 C 
HETATM    2  N   UNL     1     -15.240  14.372 -67.849  1.00  0.00     0.102 N 
HETATM    3  C   UNL     1     -14.521  15.572 -68.338  1.00  0.00     0.265 C 
HETATM    4  C   UNL     1     -13.049  15.294 -68.060  1.00  0.00     0.029 C 
HETATM    5  C   UNL     1     -11.984  16.014 -68.902  1.00  0.00     0.021 C 
HETATM    6  C   UNL     1     -12.890  15.912 -66.651  1.00  0.00     0.032 C 
HETATM    7  C   UNL     1     -13.494  14.985 -65.562  1.00  0.00     0.023 C 
HETATM    8  C   UNL     1     -12.106  14.116 -65.633  1.00  0.00    -0.015 C 
HETATM    9  C   UNL     1     -11.940  13.419 -66.774  1.00  0.00     0.011 C 
HETATM   10  C   UNL     1     -12.965  13.732 -67.848  1.00  0.00     0.119 C 
HETATM   11  C   UNL     1     -14.358  15.926 -64.658  1.00  0.00     0.240 C 
HETATM   12  C   UNL     1     -15.947  15.905 -64.869  1.00  0.00     0.076 C 
HETATM   13  C   UNL     1     -16.591  14.557 -64.691  1.00  0.00    -0.049 C 
HETATM   14  C   UNL     1     -17.740  14.315 -63.922  1.00  0.00     0.010 C 
HETATM   15  C   UNL     1     -18.105  13.004 -63.571  1.00  0.00     0.037 C 
HETATM   16  C   UNL     1     -17.391  11.931 -64.081  1.00  0.00     0.066 C 
HETATM   17  C   UNL     1     -16.359  12.149 -64.985  1.00  0.00     0.045 C 
HETATM   18  C   UNL     1     -15.889  13.478 -65.201  1.00  0.00    -0.037 C 
HETATM   19  C   UNL     1     -14.406  13.709 -65.589  1.00  0.00     0.036 C 
HETATM   20  C   UNL     1     -13.889  13.124 -64.108  1.00  0.00     0.048 C 
HETATM   21  C   UNL     1     -14.048  14.238 -62.937  1.00  0.00     0.273 C 
HETATM   22  N   UNL     1     -14.094  15.672 -63.266  1.00  0.00     0.090 N 
HETATM   23  C   UNL     1     -13.027  16.541 -62.809  1.00  0.00     0.310 C 
HETATM   24  H   UNL     1     -16.077  14.640 -67.337  1.00  0.00     0.317 HD
ENDROOT
BRANCH   3  25
HETATM   25  C   UNL     1     -15.191  16.035 -69.630  1.00  0.00    -0.025 C 
HETATM   26  C   UNL     1     -14.957  15.179 -70.730  1.00  0.00     0.009 C 
HETATM   27  C   UNL     1     -14.253  15.676 -71.820  1.00  0.00     0.001 C 
HETATM   28  C   UNL     1     -13.946  17.033 -71.873  1.00  0.00     0.000 C 
HETATM   29  C   UNL     1     -14.478  17.909 -70.923  1.00  0.00     0.001 C 
HETATM   30  C   UNL     1     -15.197  17.418 -69.835  1.00  0.00     0.009 C 
ENDBRANCH   3  25
BRANCH  10  31
HETATM   31  O   UNL     1     -12.855  12.921 -69.018  1.00  0.00    -0.378 OA
HETATM   32  C   UNL     1     -13.291  11.574 -68.952  1.00  0.00     0.203 C 
ENDBRANCH  10  31
BRANCH  16  33
HETATM   33  O   UNL     1     -17.639  10.689 -63.568  1.00  0.00    -0.361 OA
HETATM   34  H   UNL     1     -17.606  10.744 -62.596  1.00  0.00     0.217 HD
ENDBRANCH  16  33
TORSDOF 3
ENDMDL
