MODEL 1
REMARK VINA RESULT:      -0.1      0.000      0.000
REMARK  2 active torsions:
REMARK  status: ('A' for Active; 'I' for Inactive)
REMARK    1  A    between atoms: C_12  and  O_15 
REMARK    2  A    between atoms: C_19  and  O_22 
ROOT
HETATM    1  C   UNL     1     -26.155  -5.519 -35.642  1.00  0.00     0.310 C 
HETATM    2  N   UNL     1     -25.733  -5.167 -34.290  1.00  0.00     0.089 N 
HETATM    3  C   UNL     1     -24.461  -5.805 -33.936  1.00  0.00     0.273 C 
HETATM    4  C   UNL     1     -24.067  -5.517 -32.479  1.00  0.00     0.048 C 
HETATM    5  C   UNL     1     -24.226  -4.032 -32.093  1.00  0.00     0.030 C 
HETATM    6  C   UNL     1     -25.626  -3.530 -32.489  1.00  0.00     0.057 C 
HETATM    7  C   UNL     1     -25.740  -3.702 -34.036  1.00  0.00     0.235 C 
HETATM    8  C   UNL     1     -24.657  -2.881 -34.820  1.00  0.00     0.075 C 
HETATM    9  C   UNL     1     -23.349  -2.694 -34.092  1.00  0.00    -0.046 A 
HETATM   10  C   UNL     1     -23.214  -3.193 -32.805  1.00  0.00    -0.003 A 
HETATM   11  C   UNL     1     -22.168  -2.841 -31.970  1.00  0.00     0.110 A 
HETATM   12  C   UNL     1     -21.119  -2.072 -32.442  1.00  0.00     0.102 A 
HETATM   13  C   UNL     1     -21.189  -1.639 -33.778  1.00  0.00     0.040 A 
HETATM   14  C   UNL     1     -22.301  -1.927 -34.593  1.00  0.00     0.011 A 
HETATM   15  O   UNL     1     -22.375  -3.280 -30.687  1.00  0.00    -0.338 OA
HETATM   16  C   UNL     1     -23.770  -3.751 -30.648  1.00  0.00     0.175 C 
HETATM   17  C   UNL     1     -24.661  -2.730 -29.888  1.00  0.00     0.171 C 
HETATM   18  C   UNL     1     -25.418  -1.769 -30.757  1.00  0.00     0.004 C 
HETATM   19  C   UNL     1     -25.887  -2.134 -31.962  1.00  0.00    -0.020 C 
ENDROOT
BRANCH  12  20
HETATM   20  O   UNL     1     -20.015  -1.636 -31.770  1.00  0.00    -0.353 OA
HETATM   21  C   UNL     1     -18.854  -2.453 -31.824  1.00  0.00     0.210 C 
ENDBRANCH  12  20
BRANCH  17  22
HETATM   22  O   UNL     1     -23.903  -1.987 -28.938  1.00  0.00    -0.389 OA
HETATM   23  H   UNL     1     -23.623  -2.634 -28.263  1.00  0.00     0.210 HD
ENDBRANCH  17  22
TORSDOF 2
ENDMDL
MODEL 2
REMARK VINA RESULT:      -0.0     42.104     43.950
REMARK  2 active torsions:
REMARK  status: ('A' for Active; 'I' for Inactive)
REMARK    1  A    between atoms: C_12  and  O_15 
REMARK    2  A    between atoms: C_19  and  O_22 
ROOT
HETATM    1  C   UNL     1       7.455 -28.126 -59.270  1.00  0.00     0.310 C 
HETATM    2  N   UNL     1       6.513 -27.091 -58.856  1.00  0.00     0.089 N 
HETATM    3  C   UNL     1       5.559 -26.768 -59.922  1.00  0.00     0.273 C 
HETATM    4  C   UNL     1       4.633 -25.608 -59.523  1.00  0.00     0.048 C 
HETATM    5  C   UNL     1       4.054 -25.760 -58.102  1.00  0.00     0.030 C 
HETATM    6  C   UNL     1       5.185 -26.049 -57.099  1.00  0.00     0.057 C 
HETATM    7  C   UNL     1       5.854 -27.383 -57.555  1.00  0.00     0.235 C 
HETATM    8  C   UNL     1       4.854 -28.592 -57.567  1.00  0.00     0.075 C 
HETATM    9  C   UNL     1       3.420 -28.229 -57.866  1.00  0.00    -0.046 A 
HETATM   10  C   UNL     1       3.083 -26.896 -58.048  1.00  0.00    -0.003 A 
HETATM   11  C   UNL     1       1.775 -26.447 -58.056  1.00  0.00     0.110 A 
HETATM   12  C   UNL     1       0.723 -27.345 -58.022  1.00  0.00     0.102 A 
HETATM   13  C   UNL     1       1.045 -28.711 -57.939  1.00  0.00     0.040 A 
HETATM   14  C   UNL     1       2.379 -29.152 -57.840  1.00  0.00     0.011 A 
HETATM   15  O   UNL     1       1.710 -25.077 -58.025  1.00  0.00    -0.338 OA
HETATM   16  C   UNL     1       3.081 -24.620 -57.743  1.00  0.00     0.175 C 
HETATM   17  C   UNL     1       3.193 -24.129 -56.273  1.00  0.00     0.171 C 
HETATM   18  C   UNL     1       3.743 -25.134 -55.302  1.00  0.00     0.004 C 
HETATM   19  C   UNL     1       4.682 -26.020 -55.670  1.00  0.00    -0.020 C 
ENDROOT
BRANCH  12  20
HETATM   20  O   UNL     1      -0.617 -27.085 -58.026  1.00  0.00    -0.353 OA
HETATM   21  C   UNL     1      -1.225 -26.817 -59.281  1.00  0.00     0.210 C 
ENDBRANCH  12  20
BRANCH  17  22
HETATM   22  O   UNL     1       1.938 -23.663 -55.785  1.00  0.00    -0.389 OA
HETATM   23  H   UNL     1       1.535 -24.426 -55.328  1.00  0.00     0.210 HD
ENDBRANCH  17  22
TORSDOF 2
ENDMDL
MODEL 3
REMARK VINA RESULT:      -0.0     27.035     28.760
REMARK  2 active torsions:
REMARK  status: ('A' for Active; 'I' for Inactive)
REMARK    1  A    between atoms: C_12  and  O_15 
REMARK    2  A    between atoms: C_19  and  O_22 
ROOT
HETATM    1  C   UNL     1      -8.586 -22.921 -32.879  1.00  0.00     0.310 C 
HETATM    2  N   UNL     1      -8.322 -24.280 -33.341  1.00  0.00     0.089 N 
HETATM    3  C   UNL     1      -9.331 -24.731 -34.305  1.00  0.00     0.273 C 
HETATM    4  C   UNL     1      -9.112 -26.195 -34.714  1.00  0.00     0.048 C 
HETATM    5  C   UNL     1      -7.642 -26.513 -35.055  1.00  0.00     0.030 C 
HETATM    6  C   UNL     1      -6.719 -26.020 -33.926  1.00  0.00     0.057 C 
HETATM    7  C   UNL     1      -6.929 -24.476 -33.823  1.00  0.00     0.235 C 
HETATM    8  C   UNL     1      -6.568 -23.724 -35.151  1.00  0.00     0.075 C 
HETATM    9  C   UNL     1      -6.793 -24.517 -36.414  1.00  0.00    -0.046 A 
HETATM   10  C   UNL     1      -7.235 -25.828 -36.320  1.00  0.00    -0.003 A 
HETATM   11  C   UNL     1      -7.212 -26.707 -37.389  1.00  0.00     0.110 A 
HETATM   12  C   UNL     1      -6.870 -26.265 -38.655  1.00  0.00     0.102 A 
HETATM   13  C   UNL     1      -6.515 -24.912 -38.791  1.00  0.00     0.040 A 
HETATM   14  C   UNL     1      -6.455 -24.047 -37.681  1.00  0.00     0.011 A 
HETATM   15  O   UNL     1      -7.483 -27.992 -36.993  1.00  0.00    -0.338 OA
HETATM   16  C   UNL     1      -7.452 -27.970 -35.521  1.00  0.00     0.175 C 
HETATM   17  C   UNL     1      -6.149 -28.638 -35.001  1.00  0.00     0.171 C 
HETATM   18  C   UNL     1      -5.038 -27.690 -34.651  1.00  0.00     0.004 C 
HETATM   19  C   UNL     1      -5.291 -26.476 -34.135  1.00  0.00    -0.020 C 
ENDROOT
BRANCH  12  20
HETATM   20  O   UNL     1      -6.797 -26.982 -39.814  1.00  0.00    -0.353 OA
HETATM   21  C   UNL     1      -8.011 -27.226 -40.508  1.00  0.00     0.210 C 
ENDBRANCH  12  20
BRANCH  17  22
HETATM   22  O   UNL     1      -5.654 -29.600 -35.927  1.00  0.00    -0.389 OA
HETATM   23  H   UNL     1      -6.296 -30.334 -35.911  1.00  0.00     0.210 HD
ENDBRANCH  17  22
TORSDOF 2
ENDMDL
MODEL 4
REMARK VINA RESULT:      -0.0     25.521     27.413
REMARK  2 active torsions:
REMARK  status: ('A' for Active; 'I' for Inactive)
REMARK    1  A    between atoms: C_12  and  O_15 
REMARK    2  A    between atoms: C_19  and  O_22 
ROOT
HETATM    1  C   UNL     1      -9.194 -19.833 -54.712  1.00  0.00     0.310 C 
HETATM    2  N   UNL     1     -10.546 -19.285 -54.663  1.00  0.00     0.089 N 
HETATM    3  C   UNL     1     -11.301 -19.808 -53.519  1.00  0.00     0.273 C 
HETATM    4  C   UNL     1     -12.755 -19.311 -53.524  1.00  0.00     0.048 C 
HETATM    5  C   UNL     1     -12.876 -17.799 -53.798  1.00  0.00     0.030 C 
HETATM    6  C   UNL     1     -12.067 -17.422 -55.052  1.00  0.00     0.057 C 
HETATM    7  C   UNL     1     -10.583 -17.802 -54.756  1.00  0.00     0.235 C 
HETATM    8  C   UNL     1      -9.997 -17.038 -53.516  1.00  0.00     0.075 C 
HETATM    9  C   UNL     1     -11.003 -16.694 -52.447  1.00  0.00    -0.046 A 
HETATM   10  C   UNL     1     -12.338 -17.011 -52.646  1.00  0.00    -0.003 A 
HETATM   11  C   UNL     1     -13.356 -16.502 -51.859  1.00  0.00     0.110 A 
HETATM   12  C   UNL     1     -13.067 -15.751 -50.734  1.00  0.00     0.102 A 
HETATM   13  C   UNL     1     -11.712 -15.501 -50.458  1.00  0.00     0.040 A 
HETATM   14  C   UNL     1     -10.687 -15.948 -51.314  1.00  0.00     0.011 A 
HETATM   15  O   UNL     1     -14.591 -16.779 -52.389  1.00  0.00    -0.338 OA
HETATM   16  C   UNL     1     -14.336 -17.308 -53.739  1.00  0.00     0.175 C 
HETATM   17  C   UNL     1     -14.691 -16.242 -54.811  1.00  0.00     0.171 C 
HETATM   18  C   UNL     1     -13.531 -15.441 -55.328  1.00  0.00     0.004 C 
HETATM   19  C   UNL     1     -12.310 -15.984 -55.460  1.00  0.00    -0.020 C 
ENDROOT
BRANCH  12  20
HETATM   20  O   UNL     1     -13.933 -15.177 -49.850  1.00  0.00    -0.353 OA
HETATM   21  C   UNL     1     -14.479 -16.010 -48.837  1.00  0.00     0.210 C 
ENDBRANCH  12  20
BRANCH  17  22
HETATM   22  O   UNL     1     -15.691 -15.343 -54.338  1.00  0.00    -0.389 OA
HETATM   23  H   UNL     1     -15.232 -14.742 -53.722  1.00  0.00     0.210 HD
ENDBRANCH  17  22
TORSDOF 2
ENDMDL
MODEL 5
REMARK VINA RESULT:      -0.0     41.008     43.274
REMARK  2 active torsions:
REMARK  status: ('A' for Active; 'I' for Inactive)
REMARK    1  A    between atoms: C_12  and  O_15 
REMARK    2  A    between atoms: C_19  and  O_22 
ROOT
HETATM    1  C   UNL     1       3.542 -26.501 -50.183  1.00  0.00     0.310 C 
HETATM    2  N   UNL     1       4.681 -27.304 -49.749  1.00  0.00     0.089 N 
HETATM    3  C   UNL     1       5.415 -27.863 -50.889  1.00  0.00     0.273 C 
HETATM    4  C   UNL     1       6.552 -28.790 -50.432  1.00  0.00     0.048 C 
HETATM    5  C   UNL     1       7.400 -28.189 -49.293  1.00  0.00     0.030 C 
HETATM    6  C   UNL     1       6.486 -27.692 -48.159  1.00  0.00     0.057 C 
HETATM    7  C   UNL     1       5.561 -26.599 -48.780  1.00  0.00     0.235 C 
HETATM    8  C   UNL     1       6.364 -25.384 -49.365  1.00  0.00     0.075 C 
HETATM    9  C   UNL     1       7.734 -25.724 -49.898  1.00  0.00    -0.046 A 
HETATM   10  C   UNL     1       8.199 -27.026 -49.789  1.00  0.00    -0.003 A 
HETATM   11  C   UNL     1       9.522 -27.371 -49.998  1.00  0.00     0.110 A 
HETATM   12  C   UNL     1      10.427 -26.435 -50.468  1.00  0.00     0.102 A 
HETATM   13  C   UNL     1       9.951 -25.130 -50.681  1.00  0.00     0.040 A 
HETATM   14  C   UNL     1       8.623 -24.768 -50.381  1.00  0.00     0.011 A 
HETATM   15  O   UNL     1       9.775 -28.663 -49.614  1.00  0.00    -0.338 OA
HETATM   16  C   UNL     1       8.572 -29.106 -48.890  1.00  0.00     0.175 C 
HETATM   17  C   UNL     1       8.848 -29.148 -47.361  1.00  0.00     0.171 C 
HETATM   18  C   UNL     1       8.392 -27.940 -46.594  1.00  0.00     0.004 C 
HETATM   19  C   UNL     1       7.285 -27.265 -46.946  1.00  0.00    -0.020 C 
ENDROOT
BRANCH  12  20
HETATM   20  O   UNL     1      11.756 -26.596 -50.732  1.00  0.00    -0.353 OA
HETATM   21  C   UNL     1      12.108 -27.182 -51.977  1.00  0.00     0.210 C 
ENDBRANCH  12  20
BRANCH  17  22
HETATM   22  O   UNL     1      10.230 -29.366 -47.090  1.00  0.00    -0.389 OA
HETATM   23  H   UNL     1      10.273 -29.634 -46.153  1.00  0.00     0.210 HD
ENDBRANCH  17  22
TORSDOF 2
ENDMDL
MODEL 6
REMARK VINA RESULT:      -0.0     33.286     35.371
REMARK  2 active torsions:
REMARK  status: ('A' for Active; 'I' for Inactive)
REMARK    1  A    between atoms: C_12  and  O_15 
REMARK    2  A    between atoms: C_19  and  O_22 
ROOT
HETATM    1  C   UNL     1     -14.398 -30.050 -46.061  1.00  0.00     0.310 C 
HETATM    2  N   UNL     1     -13.432 -30.976 -46.644  1.00  0.00     0.089 N 
HETATM    3  C   UNL     1     -14.051 -31.838 -47.657  1.00  0.00     0.273 C 
HETATM    4  C   UNL     1     -13.060 -32.880 -48.198  1.00  0.00     0.048 C 
HETATM    5  C   UNL     1     -11.685 -32.279 -48.551  1.00  0.00     0.030 C 
HETATM    6  C   UNL     1     -11.154 -31.444 -47.371  1.00  0.00     0.057 C 
HETATM    7  C   UNL     1     -12.195 -30.307 -47.127  1.00  0.00     0.235 C 
HETATM    8  C   UNL     1     -12.381 -29.375 -48.376  1.00  0.00     0.075 C 
HETATM    9  C   UNL     1     -12.174 -30.049 -49.709  1.00  0.00    -0.046 A 
HETATM   10  C   UNL     1     -11.793 -31.382 -49.742  1.00  0.00    -0.003 A 
HETATM   11  C   UNL     1     -11.323 -32.000 -50.888  1.00  0.00     0.110 A 
HETATM   12  C   UNL     1     -11.347 -31.340 -52.104  1.00  0.00     0.102 A 
HETATM   13  C   UNL     1     -11.825 -30.018 -52.109  1.00  0.00     0.040 A 
HETATM   14  C   UNL     1     -12.216 -29.367 -50.923  1.00  0.00     0.011 A 
HETATM   15  O   UNL     1     -10.802 -33.240 -50.616  1.00  0.00    -0.338 OA
HETATM   16  C   UNL     1     -10.725 -33.326 -49.148  1.00  0.00     0.175 C 
HETATM   17  C   UNL     1      -9.251 -33.178 -48.679  1.00  0.00     0.171 C 
HETATM   18  C   UNL     1      -8.857 -31.800 -48.230  1.00  0.00     0.004 C 
HETATM   19  C   UNL     1      -9.728 -30.991 -47.606  1.00  0.00    -0.020 C 
ENDROOT
BRANCH  12  20
HETATM   20  O   UNL     1     -10.932 -31.790 -53.323  1.00  0.00    -0.353 OA
HETATM   21  C   UNL     1     -11.825 -32.620 -54.050  1.00  0.00     0.210 C 
ENDBRANCH  12  20
BRANCH  17  22
HETATM   22  O   UNL     1      -8.340 -33.609 -49.685  1.00  0.00    -0.389 OA
HETATM   23  H   UNL     1      -8.892 -33.994 -50.391  1.00  0.00     0.210 HD
ENDBRANCH  17  22
TORSDOF 2
ENDMDL
MODEL 7
REMARK VINA RESULT:      -0.0     20.631     23.022
REMARK  2 active torsions:
REMARK  status: ('A' for Active; 'I' for Inactive)
REMARK    1  A    between atoms: C_12  and  O_15 
REMARK    2  A    between atoms: C_19  and  O_22 
ROOT
HETATM    1  C   UNL     1      -7.313 -10.890 -47.427  1.00  0.00     0.310 C 
HETATM    2  N   UNL     1      -6.740 -11.157 -46.112  1.00  0.00     0.089 N 
HETATM    3  C   UNL     1      -7.700 -10.883 -45.037  1.00  0.00     0.273 C 
HETATM    4  C   UNL     1      -7.066 -11.066 -43.649  1.00  0.00     0.048 C 
HETATM    5  C   UNL     1      -6.245 -12.366 -43.527  1.00  0.00     0.030 C 
HETATM    6  C   UNL     1      -5.257 -12.479 -44.702  1.00  0.00     0.057 C 
HETATM    7  C   UNL     1      -6.115 -12.501 -46.005  1.00  0.00     0.235 C 
HETATM    8  C   UNL     1      -7.115 -13.711 -46.054  1.00  0.00     0.075 C 
HETATM    9  C   UNL     1      -7.620 -14.173 -44.710  1.00  0.00    -0.046 A 
HETATM   10  C   UNL     1      -7.144 -13.561 -43.560  1.00  0.00    -0.003 A 
HETATM   11  C   UNL     1      -7.338 -14.086 -42.295  1.00  0.00     0.110 A 
HETATM   12  C   UNL     1      -8.149 -15.191 -42.109  1.00  0.00     0.102 A 
HETATM   13  C   UNL     1      -8.723 -15.768 -43.254  1.00  0.00     0.040 A 
HETATM   14  C   UNL     1      -8.448 -15.280 -44.546  1.00  0.00     0.011 A 
HETATM   15  O   UNL     1      -6.587 -13.427 -41.354  1.00  0.00    -0.338 OA
HETATM   16  C   UNL     1      -5.668 -12.562 -42.112  1.00  0.00     0.175 C 
HETATM   17  C   UNL     1      -4.231 -13.153 -42.088  1.00  0.00     0.171 C 
HETATM   18  C   UNL     1      -3.849 -13.958 -43.297  1.00  0.00     0.004 C 
HETATM   19  C   UNL     1      -4.307 -13.644 -44.520  1.00  0.00    -0.020 C 
ENDROOT
BRANCH  12  20
HETATM   20  O   UNL     1      -8.452 -15.836 -40.945  1.00  0.00    -0.353 OA
HETATM   21  C   UNL     1      -9.473 -15.272 -40.135  1.00  0.00     0.210 C 
ENDBRANCH  12  20
BRANCH  17  22
HETATM   22  O   UNL     1      -4.015 -13.946 -40.925  1.00  0.00    -0.389 OA
HETATM   23  H   UNL     1      -3.155 -14.386 -41.064  1.00  0.00     0.210 HD
ENDBRANCH  17  22
TORSDOF 2
ENDMDL
MODEL 8
REMARK VINA RESULT:      -0.0     35.021     36.666
REMARK  2 active torsions:
REMARK  status: ('A' for Active; 'I' for Inactive)
REMARK    1  A    between atoms: C_12  and  O_15 
REMARK    2  A    between atoms: C_19  and  O_22 
ROOT
HETATM    1  C   UNL     1      -2.047 -27.777 -51.026  1.00  0.00     0.310 C 
HETATM    2  N   UNL     1      -2.778 -28.912 -50.473  1.00  0.00     0.089 N 
HETATM    3  C   UNL     1      -1.903 -29.790 -49.688  1.00  0.00     0.273 C 
HETATM    4  C   UNL     1      -2.648 -31.038 -49.191  1.00  0.00     0.048 C 
HETATM    5  C   UNL     1      -4.027 -30.715 -48.581  1.00  0.00     0.030 C 
HETATM    6  C   UNL     1      -4.836 -29.828 -49.544  1.00  0.00     0.057 C 
HETATM    7  C   UNL     1      -4.011 -28.518 -49.743  1.00  0.00     0.235 C 
HETATM    8  C   UNL     1      -3.776 -27.740 -48.400  1.00  0.00     0.075 C 
HETATM    9  C   UNL     1      -3.688 -28.607 -47.169  1.00  0.00    -0.046 A 
HETATM   10  C   UNL     1      -3.871 -29.976 -47.291  1.00  0.00    -0.003 A 
HETATM   11  C   UNL     1      -4.076 -30.806 -46.202  1.00  0.00     0.110 A 
HETATM   12  C   UNL     1      -3.966 -30.315 -44.913  1.00  0.00     0.102 A 
HETATM   13  C   UNL     1      -3.681 -28.946 -44.768  1.00  0.00     0.040 A 
HETATM   14  C   UNL     1      -3.563 -28.092 -45.881  1.00  0.00     0.011 A 
HETATM   15  O   UNL     1      -4.453 -32.066 -46.591  1.00  0.00    -0.338 OA
HETATM   16  C   UNL     1      -4.733 -31.970 -48.034  1.00  0.00     0.175 C 
HETATM   17  C   UNL     1      -6.266 -31.998 -48.287  1.00  0.00     0.171 C 
HETATM   18  C   UNL     1      -6.910 -30.654 -48.467  1.00  0.00     0.004 C 
HETATM   19  C   UNL     1      -6.261 -29.642 -49.066  1.00  0.00    -0.020 C 
ENDROOT
BRANCH  12  20
HETATM   20  O   UNL     1      -4.130 -30.981 -43.734  1.00  0.00    -0.353 OA
HETATM   21  C   UNL     1      -3.033 -31.747 -43.259  1.00  0.00     0.210 C 
ENDBRANCH  12  20
BRANCH  17  22
HETATM   22  O   UNL     1      -6.950 -32.697 -47.251  1.00  0.00    -0.389 OA
HETATM   23  H   UNL     1      -7.058 -33.610 -47.577  1.00  0.00     0.210 HD
ENDBRANCH  17  22
TORSDOF 2
ENDMDL
MODEL 9
REMARK VINA RESULT:      -0.0     19.370     20.919
REMARK  2 active torsions:
REMARK  status: ('A' for Active; 'I' for Inactive)
REMARK    1  A    between atoms: C_12  and  O_15 
REMARK    2  A    between atoms: C_19  and  O_22 
ROOT
HETATM    1  C   UNL     1     -12.956 -14.920 -48.152  1.00  0.00     0.310 C 
HETATM    2  N   UNL     1     -12.579 -14.118 -46.993  1.00  0.00     0.089 N 
HETATM    3  C   UNL     1     -11.637 -14.831 -46.124  1.00  0.00     0.273 C 
HETATM    4  C   UNL     1     -11.320 -14.029 -44.852  1.00  0.00     0.048 C 
HETATM    5  C   UNL     1     -11.010 -12.545 -45.136  1.00  0.00     0.030 C 
HETATM    6  C   UNL     1     -12.113 -11.934 -46.019  1.00  0.00     0.057 C 
HETATM    7  C   UNL     1     -12.121 -12.749 -47.350  1.00  0.00     0.235 C 
HETATM    8  C   UNL     1     -10.751 -12.679 -48.113  1.00  0.00     0.075 C 
HETATM    9  C   UNL     1      -9.538 -12.528 -47.230  1.00  0.00    -0.046 A 
HETATM   10  C   UNL     1      -9.708 -12.409 -45.859  1.00  0.00    -0.003 A 
HETATM   11  C   UNL     1      -8.695 -12.000 -45.010  1.00  0.00     0.110 A 
HETATM   12  C   UNL     1      -7.407 -11.825 -45.484  1.00  0.00     0.102 A 
HETATM   13  C   UNL     1      -7.192 -12.040 -46.856  1.00  0.00     0.040 A 
HETATM   14  C   UNL     1      -8.248 -12.367 -47.729  1.00  0.00     0.011 A 
HETATM   15  O   UNL     1      -9.167 -11.744 -43.747  1.00  0.00    -0.338 OA
HETATM   16  C   UNL     1     -10.635 -11.771 -43.857  1.00  0.00     0.175 C 
HETATM   17  C   UNL     1     -11.204 -10.326 -43.799  1.00  0.00     0.171 C 
HETATM   18  C   UNL     1     -11.503  -9.701 -45.131  1.00  0.00     0.004 C 
HETATM   19  C   UNL     1     -11.943 -10.436 -46.166  1.00  0.00    -0.020 C 
ENDROOT
BRANCH  12  20
HETATM   20  O   UNL     1      -6.295 -11.434 -44.797  1.00  0.00    -0.353 OA
HETATM   21  C   UNL     1      -5.608 -12.426 -44.048  1.00  0.00     0.210 C 
ENDBRANCH  12  20
BRANCH  17  22
HETATM   22  O   UNL     1     -10.342  -9.457 -43.071  1.00  0.00    -0.389 OA
HETATM   23  H   UNL     1      -9.519  -9.963 -42.930  1.00  0.00     0.210 HD
ENDBRANCH  17  22
TORSDOF 2
ENDMDL
MODEL 10
REMARK VINA RESULT:      -0.0     39.962     41.780
REMARK  2 active torsions:
REMARK  status: ('A' for Active; 'I' for Inactive)
REMARK    1  A    between atoms: C_12  and  O_15 
REMARK    2  A    between atoms: C_19  and  O_22 
ROOT
HETATM    1  C   UNL     1       3.982 -33.883 -48.514  1.00  0.00     0.310 C 
HETATM    2  N   UNL     1       4.678 -33.315 -47.365  1.00  0.00     0.089 N 
HETATM    3  C   UNL     1       5.858 -32.545 -47.772  1.00  0.00     0.273 C 
HETATM    4  C   UNL     1       6.648 -32.031 -46.558  1.00  0.00     0.048 C 
HETATM    5  C   UNL     1       5.749 -31.397 -45.477  1.00  0.00     0.030 C 
HETATM    6  C   UNL     1       4.589 -32.347 -45.130  1.00  0.00     0.057 C 
HETATM    7  C   UNL     1       3.781 -32.563 -46.448  1.00  0.00     0.235 C 
HETATM    8  C   UNL     1       3.197 -31.227 -47.028  1.00  0.00     0.075 C 
HETATM    9  C   UNL     1       4.020 -29.995 -46.742  1.00  0.00    -0.046 A 
HETATM   10  C   UNL     1       5.165 -30.111 -45.967  1.00  0.00    -0.003 A 
HETATM   11  C   UNL     1       5.823 -29.018 -45.434  1.00  0.00     0.110 A 
HETATM   12  C   UNL     1       5.441 -27.732 -45.772  1.00  0.00     0.102 A 
HETATM   13  C   UNL     1       4.343 -27.594 -46.638  1.00  0.00     0.040 A 
HETATM   14  C   UNL     1       3.623 -28.711 -47.105  1.00  0.00     0.011 A 
HETATM   15  O   UNL     1       6.782 -29.397 -44.529  1.00  0.00    -0.338 OA
HETATM   16  C   UNL     1       6.563 -30.834 -44.296  1.00  0.00     0.175 C 
HETATM   17  C   UNL     1       5.905 -31.060 -42.906  1.00  0.00     0.171 C 
HETATM   18  C   UNL     1       4.414 -31.231 -42.924  1.00  0.00     0.004 C 
HETATM   19  C   UNL     1       3.792 -31.844 -43.945  1.00  0.00    -0.020 C 
ENDROOT
BRANCH  12  20
HETATM   20  O   UNL     1       5.972 -26.548 -45.349  1.00  0.00    -0.353 OA
HETATM   21  C   UNL     1       7.149 -26.092 -45.999  1.00  0.00     0.210 C 
ENDBRANCH  12  20
BRANCH  17  22
HETATM   22  O   UNL     1       6.233 -30.010 -42.001  1.00  0.00    -0.389 OA
HETATM   23  H   UNL     1       6.838 -30.408 -41.346  1.00  0.00     0.210 HD
ENDBRANCH  17  22
TORSDOF 2
ENDMDL
