MODEL 1
REMARK VINA RESULT:      -8.1      0.000      0.000
REMARK  6 active torsions:
REMARK  status: ('A' for Active; 'I' for Inactive)
REMARK    1  A    between atoms: C_2  and  C_3 
REMARK    2  A    between atoms: C_12  and  C_13 
REMARK    3  A    between atoms: C_13  and  C_17 
REMARK    4  A    between atoms: C_14  and  O_15 
REMARK    5  A    between atoms: C_17  and  O_19 
REMARK    6  A    between atoms: C_24  and  O_28 
ROOT
HETATM    1  C   UNL     1      -1.188  12.771 -57.899  1.00  0.00     0.022 C 
HETATM    2  C   UNL     1      -1.546  14.257 -57.861  1.00  0.00     0.278 C 
HETATM    3  N   UNL     1      -0.671  15.027 -56.974  1.00  0.00     0.099 N 
HETATM    4  C   UNL     1      -1.017  16.475 -57.036  1.00  0.00     0.278 C 
HETATM    5  C   UNL     1      -0.522  17.223 -58.307  1.00  0.00     0.072 C 
HETATM    6  C   UNL     1       0.919  16.922 -58.513  1.00  0.00    -0.016 A 
HETATM    7  C   UNL     1       1.480  15.796 -57.949  1.00  0.00     0.050 A 
HETATM    8  C   UNL     1       0.786  14.783 -57.088  1.00  0.00     0.273 C 
HETATM    9  C   UNL     1       1.198  13.331 -57.414  1.00  0.00     0.052 C 
HETATM   10  C   UNL     1       0.269  12.538 -58.361  1.00  0.00     0.035 C 
HETATM   11  N   UNL     1       2.826  15.844 -58.185  1.00  0.00    -0.357 N 
HETATM   12  C   UNL     1       3.128  16.920 -58.989  1.00  0.00     0.046 A 
HETATM   13  C   UNL     1       1.938  17.615 -59.230  1.00  0.00     0.032 A 
HETATM   14  C   UNL     1       1.970  18.753 -60.072  1.00  0.00     0.081 A 
HETATM   15  C   UNL     1       3.205  19.151 -60.610  1.00  0.00     0.038 A 
HETATM   16  C   UNL     1       4.378  18.443 -60.335  1.00  0.00     0.005 A 
HETATM   17  C   UNL     1       4.361  17.315 -59.517  1.00  0.00     0.030 A 
HETATM   18  H   UNL     1       3.508  15.182 -57.841  1.00  0.00     0.166 HD
ENDROOT
BRANCH  10  19
HETATM   19  C   UNL     1       0.642  12.642 -59.830  1.00  0.00     0.043 C 
HETATM   20  C   UNL     1       0.349  13.595 -60.747  1.00  0.00     0.147 C 
BRANCH  20  21
HETATM   21  O   UNL     1      -0.314  14.783 -60.731  1.00  0.00    -0.367 OA
HETATM   22  C   UNL     1      -0.217  15.698 -61.803  1.00  0.00     0.208 C 
ENDBRANCH  20  21
BRANCH  19  23
HETATM   23  C   UNL     1       1.510  11.613 -60.467  1.00  0.00     0.291 C 
HETATM   24  O   UNL     1       1.833  11.639 -61.645  1.00  0.00    -0.260 OA
BRANCH  23  25
HETATM   25  O   UNL     1       1.702  10.578 -59.609  1.00  0.00    -0.323 OA
HETATM   26  C   UNL     1       2.576   9.565 -60.113  1.00  0.00     0.213 C 
ENDBRANCH  23  25
ENDBRANCH  19  23
ENDBRANCH  10  19
BRANCH   1  27
HETATM   27  C   UNL     1      -2.270  11.891 -58.557  1.00  0.00     0.002 C 
HETATM   28  C   UNL     1      -1.954  10.425 -58.787  1.00  0.00     0.005 C 
ENDBRANCH   1  27
BRANCH  14  29
HETATM   29  O   UNL     1       0.786  19.404 -60.314  1.00  0.00    -0.355 OA
HETATM   30  C   UNL     1       0.629  19.937 -61.623  1.00  0.00     0.210 C 
ENDBRANCH  14  29
TORSDOF 6
ENDMDL
MODEL 2
REMARK VINA RESULT:      -7.8      1.170      2.592
REMARK  6 active torsions:
REMARK  status: ('A' for Active; 'I' for Inactive)
REMARK    1  A    between atoms: C_2  and  C_3 
REMARK    2  A    between atoms: C_12  and  C_13 
REMARK    3  A    between atoms: C_13  and  C_17 
REMARK    4  A    between atoms: C_14  and  O_15 
REMARK    5  A    between atoms: C_17  and  O_19 
REMARK    6  A    between atoms: C_24  and  O_28 
ROOT
HETATM    1  C   UNL     1      -1.323  14.150 -57.724  1.00  0.00     0.022 C 
HETATM    2  C   UNL     1      -1.668  15.624 -57.940  1.00  0.00     0.278 C 
HETATM    3  N   UNL     1      -0.762  16.527 -57.226  1.00  0.00     0.099 N 
HETATM    4  C   UNL     1      -1.096  17.945 -57.534  1.00  0.00     0.278 C 
HETATM    5  C   UNL     1      -0.631  18.450 -58.930  1.00  0.00     0.072 C 
HETATM    6  C   UNL     1       0.801  18.099 -59.117  1.00  0.00    -0.016 A 
HETATM    7  C   UNL     1       1.368  17.082 -58.378  1.00  0.00     0.050 A 
HETATM    8  C   UNL     1       0.690  16.246 -57.334  1.00  0.00     0.273 C 
HETATM    9  C   UNL     1       1.080  14.755 -57.409  1.00  0.00     0.052 C 
HETATM   10  C   UNL     1       0.117  13.819 -58.175  1.00  0.00     0.035 C 
HETATM   11  N   UNL     1       2.708  17.070 -58.654  1.00  0.00    -0.357 N 
HETATM   12  C   UNL     1       2.996  17.983 -59.643  1.00  0.00     0.046 A 
HETATM   13  C   UNL     1       1.806  18.640 -59.972  1.00  0.00     0.032 A 
HETATM   14  C   UNL     1       1.823  19.612 -61.002  1.00  0.00     0.081 A 
HETATM   15  C   UNL     1       3.046  19.891 -61.635  1.00  0.00     0.038 A 
HETATM   16  C   UNL     1       4.220  19.228 -61.270  1.00  0.00     0.005 A 
HETATM   17  C   UNL     1       4.217  18.261 -60.266  1.00  0.00     0.030 A 
HETATM   18  H   UNL     1       3.393  16.470 -58.217  1.00  0.00     0.166 HD
ENDROOT
BRANCH  10  19
HETATM   19  C   UNL     1       0.450  13.658 -59.649  1.00  0.00     0.043 C 
HETATM   20  C   UNL     1       1.011  12.621 -60.316  1.00  0.00     0.147 C 
BRANCH  20  21
HETATM   21  O   UNL     1       1.440  11.374 -59.984  1.00  0.00    -0.367 OA
HETATM   22  C   UNL     1       0.657  10.228 -60.245  1.00  0.00     0.208 C 
ENDBRANCH  20  21
BRANCH  19  23
HETATM   23  C   UNL     1       0.105  14.728 -60.626  1.00  0.00     0.291 C 
HETATM   24  O   UNL     1      -1.029  14.931 -61.032  1.00  0.00    -0.260 OA
BRANCH  23  25
HETATM   25  O   UNL     1       1.242  15.281 -61.123  1.00  0.00    -0.323 OA
HETATM   26  C   UNL     1       1.034  16.067 -62.298  1.00  0.00     0.213 C 
ENDBRANCH  23  25
ENDBRANCH  19  23
ENDBRANCH  10  19
BRANCH   1  27
HETATM   27  C   UNL     1      -2.431  13.182 -58.187  1.00  0.00     0.002 C 
HETATM   28  C   UNL     1      -2.073  11.718 -58.361  1.00  0.00     0.005 C 
ENDBRANCH   1  27
BRANCH  14  29
HETATM   29  O   UNL     1       0.639  20.225 -61.325  1.00  0.00    -0.355 OA
HETATM   30  C   UNL     1       0.655  21.024 -62.502  1.00  0.00     0.210 C 
ENDBRANCH  14  29
TORSDOF 6
ENDMDL
MODEL 3
REMARK VINA RESULT:      -6.8      1.732      2.701
REMARK  6 active torsions:
REMARK  status: ('A' for Active; 'I' for Inactive)
REMARK    1  A    between atoms: C_2  and  C_3 
REMARK    2  A    between atoms: C_12  and  C_13 
REMARK    3  A    between atoms: C_13  and  C_17 
REMARK    4  A    between atoms: C_14  and  O_15 
REMARK    5  A    between atoms: C_17  and  O_19 
REMARK    6  A    between atoms: C_24  and  O_28 
ROOT
HETATM    1  C   UNL     1      -1.163  14.493 -56.942  1.00  0.00     0.022 C 
HETATM    2  C   UNL     1      -1.847  15.480 -57.890  1.00  0.00     0.278 C 
HETATM    3  N   UNL     1      -1.651  16.875 -57.489  1.00  0.00     0.099 N 
HETATM    4  C   UNL     1      -2.271  17.791 -58.488  1.00  0.00     0.278 C 
HETATM    5  C   UNL     1      -1.471  17.973 -59.809  1.00  0.00     0.072 C 
HETATM    6  C   UNL     1      -0.056  18.287 -59.477  1.00  0.00    -0.016 A 
HETATM    7  C   UNL     1       0.457  17.950 -58.243  1.00  0.00     0.050 A 
HETATM    8  C   UNL     1      -0.275  17.282 -57.118  1.00  0.00     0.273 C 
HETATM    9  C   UNL     1       0.570  16.208 -56.401  1.00  0.00     0.052 C 
HETATM   10  C   UNL     1       0.359  14.743 -56.844  1.00  0.00     0.035 C 
HETATM   11  N   UNL     1       1.719  18.472 -58.166  1.00  0.00    -0.357 N 
HETATM   12  C   UNL     1       2.072  19.040 -59.369  1.00  0.00     0.046 A 
HETATM   13  C   UNL     1       0.974  18.924 -60.229  1.00  0.00     0.032 A 
HETATM   14  C   UNL     1       1.093  19.402 -61.557  1.00  0.00     0.081 A 
HETATM   15  C   UNL     1       2.305  19.996 -61.946  1.00  0.00     0.038 A 
HETATM   16  C   UNL     1       3.375  20.110 -61.057  1.00  0.00     0.005 A 
HETATM   17  C   UNL     1       3.278  19.635 -59.750  1.00  0.00     0.030 A 
HETATM   18  H   UNL     1       2.322  18.436 -57.356  1.00  0.00     0.166 HD
ENDROOT
BRANCH  10  19
HETATM   19  C   UNL     1       1.292  14.288 -57.954  1.00  0.00     0.043 C 
HETATM   20  C   UNL     1       2.428  14.848 -58.433  1.00  0.00     0.147 C 
BRANCH  20  21
HETATM   21  O   UNL     1       3.175  15.942 -58.121  1.00  0.00    -0.367 OA
HETATM   22  C   UNL     1       4.265  16.345 -58.923  1.00  0.00     0.208 C 
ENDBRANCH  20  21
BRANCH  19  23
HETATM   23  C   UNL     1       1.046  13.008 -58.674  1.00  0.00     0.291 C 
HETATM   24  O   UNL     1       1.391  11.916 -58.246  1.00  0.00    -0.260 OA
BRANCH  23  25
HETATM   25  O   UNL     1       0.581  13.265 -59.924  1.00  0.00    -0.323 OA
HETATM   26  C   UNL     1       0.669  12.148 -60.812  1.00  0.00     0.213 C 
ENDBRANCH  23  25
ENDBRANCH  19  23
ENDBRANCH  10  19
BRANCH   1  27
HETATM   27  C   UNL     1      -1.611  13.031 -57.144  1.00  0.00     0.002 C 
HETATM   28  C   UNL     1      -2.824  12.771 -58.018  1.00  0.00     0.005 C 
ENDBRANCH   1  27
BRANCH  14  29
HETATM   29  O   UNL     1       0.011  19.254 -62.389  1.00  0.00    -0.355 OA
HETATM   30  C   UNL     1       0.067  19.980 -63.612  1.00  0.00     0.210 C 
ENDBRANCH  14  29
TORSDOF 6
ENDMDL
MODEL 4
REMARK VINA RESULT:      -6.2     14.296     15.897
REMARK  6 active torsions:
REMARK  status: ('A' for Active; 'I' for Inactive)
REMARK    1  A    between atoms: C_2  and  C_3 
REMARK    2  A    between atoms: C_12  and  C_13 
REMARK    3  A    between atoms: C_13  and  C_17 
REMARK    4  A    between atoms: C_14  and  O_15 
REMARK    5  A    between atoms: C_17  and  O_19 
REMARK    6  A    between atoms: C_24  and  O_28 
ROOT
HETATM    1  C   UNL     1     -14.234  13.878 -60.370  1.00  0.00     0.022 C 
HETATM    2  C   UNL     1     -14.314  15.149 -61.218  1.00  0.00     0.278 C 
HETATM    3  N   UNL     1     -13.014  15.549 -61.760  1.00  0.00     0.099 N 
HETATM    4  C   UNL     1     -13.164  16.743 -62.637  1.00  0.00     0.278 C 
HETATM    5  C   UNL     1     -13.757  16.462 -64.047  1.00  0.00     0.072 C 
HETATM    6  C   UNL     1     -13.015  15.331 -64.666  1.00  0.00    -0.016 A 
HETATM    7  C   UNL     1     -12.317  14.445 -63.873  1.00  0.00     0.050 A 
HETATM    8  C   UNL     1     -12.187  14.486 -62.380  1.00  0.00     0.273 C 
HETATM    9  C   UNL     1     -12.290  13.091 -61.727  1.00  0.00     0.052 C 
HETATM   10  C   UNL     1     -13.673  12.681 -61.170  1.00  0.00     0.035 C 
HETATM   11  N   UNL     1     -11.630  13.602 -64.704  1.00  0.00    -0.357 N 
HETATM   12  C   UNL     1     -11.963  13.856 -66.015  1.00  0.00     0.046 A 
HETATM   13  C   UNL     1     -12.853  14.935 -66.026  1.00  0.00     0.032 A 
HETATM   14  C   UNL     1     -13.382  15.373 -67.264  1.00  0.00     0.081 A 
HETATM   15  C   UNL     1     -12.969  14.717 -68.435  1.00  0.00     0.038 A 
HETATM   16  C   UNL     1     -12.066  13.653 -68.391  1.00  0.00     0.005 A 
HETATM   17  C   UNL     1     -11.544  13.203 -67.179  1.00  0.00     0.030 A 
HETATM   18  H   UNL     1     -10.985  12.883 -64.410  1.00  0.00     0.166 HD
ENDROOT
BRANCH  10  19
HETATM   19  C   UNL     1     -14.547  11.936 -62.165  1.00  0.00     0.043 C 
HETATM   20  C   UNL     1     -15.084  10.694 -62.106  1.00  0.00     0.147 C 
BRANCH  20  21
HETATM   21  O   UNL     1     -15.100   9.688 -61.191  1.00  0.00    -0.367 OA
HETATM   22  C   UNL     1     -15.764   9.827 -59.952  1.00  0.00     0.208 C 
ENDBRANCH  20  21
BRANCH  19  23
HETATM   23  C   UNL     1     -14.991  12.593 -63.425  1.00  0.00     0.291 C 
HETATM   24  O   UNL     1     -15.857  13.454 -63.468  1.00  0.00    -0.260 OA
BRANCH  23  25
HETATM   25  O   UNL     1     -14.445  11.956 -64.494  1.00  0.00    -0.323 OA
HETATM   26  C   UNL     1     -15.212  12.082 -65.693  1.00  0.00     0.213 C 
ENDBRANCH  23  25
ENDBRANCH  19  23
ENDBRANCH  10  19
BRANCH   1  27
HETATM   27  C   UNL     1     -15.502  13.615 -59.532  1.00  0.00     0.002 C 
HETATM   28  C   UNL     1     -15.325  13.159 -58.095  1.00  0.00     0.005 C 
ENDBRANCH   1  27
BRANCH  14  29
HETATM   29  O   UNL     1     -14.273  16.417 -67.246  1.00  0.00    -0.355 OA
HETATM   30  C   UNL     1     -15.187  16.470 -68.334  1.00  0.00     0.210 C 
ENDBRANCH  14  29
TORSDOF 6
ENDMDL
MODEL 5
REMARK VINA RESULT:      -6.0      1.085      2.454
REMARK  6 active torsions:
REMARK  status: ('A' for Active; 'I' for Inactive)
REMARK    1  A    between atoms: C_2  and  C_3 
REMARK    2  A    between atoms: C_12  and  C_13 
REMARK    3  A    between atoms: C_13  and  C_17 
REMARK    4  A    between atoms: C_14  and  O_15 
REMARK    5  A    between atoms: C_17  and  O_19 
REMARK    6  A    between atoms: C_24  and  O_28 
ROOT
HETATM    1  C   UNL     1      -1.050  11.787 -58.217  1.00  0.00     0.022 C 
HETATM    2  C   UNL     1      -1.563  13.213 -58.006  1.00  0.00     0.278 C 
HETATM    3  N   UNL     1      -0.758  13.965 -57.040  1.00  0.00     0.099 N 
HETATM    4  C   UNL     1      -1.255  15.365 -56.933  1.00  0.00     0.278 C 
HETATM    5  C   UNL     1      -0.864  16.302 -58.111  1.00  0.00     0.072 C 
HETATM    6  C   UNL     1       0.597  16.182 -58.359  1.00  0.00    -0.016 A 
HETATM    7  C   UNL     1       1.283  15.065 -57.931  1.00  0.00     0.050 A 
HETATM    8  C   UNL     1       0.715  13.892 -57.190  1.00  0.00     0.273 C 
HETATM    9  C   UNL     1       1.271  12.540 -57.684  1.00  0.00     0.052 C 
HETATM   10  C   UNL     1       0.414  11.765 -58.711  1.00  0.00     0.035 C 
HETATM   11  N   UNL     1       2.613  15.283 -58.168  1.00  0.00    -0.357 N 
HETATM   12  C   UNL     1       2.785  16.470 -58.843  1.00  0.00     0.046 A 
HETATM   13  C   UNL     1       1.525  17.057 -58.996  1.00  0.00     0.032 A 
HETATM   14  C   UNL     1       1.422  18.281 -59.701  1.00  0.00     0.081 A 
HETATM   15  C   UNL     1       2.599  18.867 -60.196  1.00  0.00     0.038 A 
HETATM   16  C   UNL     1       3.843  18.262 -60.011  1.00  0.00     0.005 A 
HETATM   17  C   UNL     1       3.960  17.052 -59.329  1.00  0.00     0.030 A 
HETATM   18  H   UNL     1       3.366  14.663 -57.906  1.00  0.00     0.166 HD
ENDROOT
BRANCH  10  19
HETATM   19  C   UNL     1       0.748  12.076 -60.160  1.00  0.00     0.043 C 
HETATM   20  C   UNL     1       1.488  11.386 -61.060  1.00  0.00     0.147 C 
BRANCH  20  21
HETATM   21  O   UNL     1       2.156  10.201 -61.060  1.00  0.00    -0.367 OA
HETATM   22  C   UNL     1       3.267   9.979 -61.904  1.00  0.00     0.208 C 
ENDBRANCH  20  21
BRANCH  19  23
HETATM   23  C   UNL     1       0.188  13.286 -60.824  1.00  0.00     0.291 C 
HETATM   24  O   UNL     1      -0.818  13.862 -60.440  1.00  0.00    -0.260 OA
BRANCH  23  25
HETATM   25  O   UNL     1       0.836  13.509 -61.998  1.00  0.00    -0.323 OA
HETATM   26  C   UNL     1       0.267  14.561 -62.779  1.00  0.00     0.213 C 
ENDBRANCH  23  25
ENDBRANCH  19  23
ENDBRANCH  10  19
BRANCH   1  27
HETATM   27  C   UNL     1      -2.045  10.878 -58.967  1.00  0.00     0.002 C 
HETATM   28  C   UNL     1      -1.813   9.379 -58.925  1.00  0.00     0.005 C 
ENDBRANCH   1  27
BRANCH  14  29
HETATM   29  O   UNL     1       0.172  18.825 -59.860  1.00  0.00    -0.355 OA
HETATM   30  C   UNL     1      -0.382  19.454 -58.710  1.00  0.00     0.210 C 
ENDBRANCH  14  29
TORSDOF 6
ENDMDL
MODEL 6
REMARK VINA RESULT:      -6.0     15.471     18.044
REMARK  6 active torsions:
REMARK  status: ('A' for Active; 'I' for Inactive)
REMARK    1  A    between atoms: C_2  and  C_3 
REMARK    2  A    between atoms: C_12  and  C_13 
REMARK    3  A    between atoms: C_13  and  C_17 
REMARK    4  A    between atoms: C_14  and  O_15 
REMARK    5  A    between atoms: C_17  and  O_19 
REMARK    6  A    between atoms: C_24  and  O_28 
ROOT
HETATM    1  C   UNL     1     -13.898  14.781 -70.416  1.00  0.00     0.022 C 
HETATM    2  C   UNL     1     -13.154  13.901 -69.412  1.00  0.00     0.278 C 
HETATM    3  N   UNL     1     -12.109  14.629 -68.688  1.00  0.00     0.099 N 
HETATM    4  C   UNL     1     -11.471  13.745 -67.672  1.00  0.00     0.278 C 
HETATM    5  C   UNL     1     -12.307  13.500 -66.384  1.00  0.00     0.072 C 
HETATM    6  C   UNL     1     -12.775  14.810 -65.857  1.00  0.00    -0.016 A 
HETATM    7  C   UNL     1     -12.844  15.907 -66.689  1.00  0.00     0.050 A 
HETATM    8  C   UNL     1     -12.471  15.958 -68.140  1.00  0.00     0.273 C 
HETATM    9  C   UNL     1     -13.461  16.784 -68.989  1.00  0.00     0.052 C 
HETATM   10  C   UNL     1     -14.563  16.000 -69.737  1.00  0.00     0.035 C 
HETATM   11  N   UNL     1     -13.170  16.989 -65.918  1.00  0.00    -0.357 N 
HETATM   12  C   UNL     1     -13.424  16.589 -64.625  1.00  0.00     0.046 A 
HETATM   13  C   UNL     1     -13.200  15.210 -64.556  1.00  0.00     0.032 A 
HETATM   14  C   UNL     1     -13.431  14.540 -63.330  1.00  0.00     0.081 A 
HETATM   15  C   UNL     1     -13.854  15.298 -62.226  1.00  0.00     0.038 A 
HETATM   16  C   UNL     1     -14.053  16.676 -62.324  1.00  0.00     0.005 A 
HETATM   17  C   UNL     1     -13.840  17.349 -63.527  1.00  0.00     0.030 A 
HETATM   18  H   UNL     1     -13.236  17.943 -66.241  1.00  0.00     0.166 HD
ENDROOT
BRANCH  10  19
HETATM   19  C   UNL     1     -15.854  15.842 -68.952  1.00  0.00     0.043 C 
HETATM   20  C   UNL     1     -16.227  14.901 -68.052  1.00  0.00     0.147 C 
BRANCH  20  21
HETATM   21  O   UNL     1     -15.636  13.814 -67.487  1.00  0.00    -0.367 OA
HETATM   22  C   UNL     1     -16.089  13.282 -66.258  1.00  0.00     0.208 C 
ENDBRANCH  20  21
BRANCH  19  23
HETATM   23  C   UNL     1     -16.944  16.850 -69.072  1.00  0.00     0.291 C 
HETATM   24  O   UNL     1     -17.897  16.908 -68.309  1.00  0.00    -0.260 OA
BRANCH  23  25
HETATM   25  O   UNL     1     -16.813  17.532 -70.240  1.00  0.00    -0.323 OA
HETATM   26  C   UNL     1     -17.835  17.239 -71.195  1.00  0.00     0.213 C 
ENDBRANCH  23  25
ENDBRANCH  19  23
ENDBRANCH  10  19
BRANCH   1  27
HETATM   27  C   UNL     1     -14.769  13.985 -71.409  1.00  0.00     0.002 C 
HETATM   28  C   UNL     1     -15.375  14.730 -72.583  1.00  0.00     0.005 C 
ENDBRANCH   1  27
BRANCH  14  29
HETATM   29  O   UNL     1     -13.229  13.183 -63.294  1.00  0.00    -0.355 OA
HETATM   30  C   UNL     1     -12.016  12.753 -62.686  1.00  0.00     0.210 C 
ENDBRANCH  14  29
TORSDOF 6
ENDMDL
MODEL 7
REMARK VINA RESULT:      -5.9     15.470     17.983
REMARK  6 active torsions:
REMARK  status: ('A' for Active; 'I' for Inactive)
REMARK    1  A    between atoms: C_2  and  C_3 
REMARK    2  A    between atoms: C_12  and  C_13 
REMARK    3  A    between atoms: C_13  and  C_17 
REMARK    4  A    between atoms: C_14  and  O_15 
REMARK    5  A    between atoms: C_17  and  O_19 
REMARK    6  A    between atoms: C_24  and  O_28 
ROOT
HETATM    1  C   UNL     1     -14.149  15.370 -70.373  1.00  0.00     0.022 C 
HETATM    2  C   UNL     1     -13.365  14.355 -69.539  1.00  0.00     0.278 C 
HETATM    3  N   UNL     1     -12.257  14.966 -68.801  1.00  0.00     0.099 N 
HETATM    4  C   UNL     1     -11.580  13.949 -67.950  1.00  0.00     0.278 C 
HETATM    5  C   UNL     1     -12.337  13.559 -66.650  1.00  0.00     0.072 C 
HETATM    6  C   UNL     1     -12.734  14.799 -65.932  1.00  0.00    -0.016 A 
HETATM    7  C   UNL     1     -12.828  15.994 -66.614  1.00  0.00     0.050 A 
HETATM    8  C   UNL     1     -12.547  16.222 -68.069  1.00  0.00     0.273 C 
HETATM    9  C   UNL     1     -13.567  17.167 -68.739  1.00  0.00     0.052 C 
HETATM   10  C   UNL     1     -14.736  16.505 -69.503  1.00  0.00     0.035 C 
HETATM   11  N   UNL     1     -13.074  16.975 -65.693  1.00  0.00    -0.357 N 
HETATM   12  C   UNL     1     -13.255  16.420 -64.446  1.00  0.00     0.046 A 
HETATM   13  C   UNL     1     -13.064  15.039 -64.566  1.00  0.00     0.032 A 
HETATM   14  C   UNL     1     -13.234  14.224 -63.421  1.00  0.00     0.081 A 
HETATM   15  C   UNL     1     -13.565  14.843 -62.204  1.00  0.00     0.038 A 
HETATM   16  C   UNL     1     -13.732  16.226 -62.116  1.00  0.00     0.005 A 
HETATM   17  C   UNL     1     -13.578  17.042 -63.236  1.00  0.00     0.030 A 
HETATM   18  H   UNL     1     -13.135  17.965 -65.889  1.00  0.00     0.166 HD
ENDROOT
BRANCH  10  19
HETATM   19  C   UNL     1     -15.978  16.272 -68.659  1.00  0.00     0.043 C 
HETATM   20  C   UNL     1     -17.234  16.761 -68.789  1.00  0.00     0.147 C 
BRANCH  20  21
HETATM   21  O   UNL     1     -17.873  17.567 -69.679  1.00  0.00    -0.367 OA
HETATM   22  C   UNL     1     -18.463  17.050 -70.854  1.00  0.00     0.208 C 
ENDBRANCH  20  21
BRANCH  19  23
HETATM   23  C   UNL     1     -15.943  15.335 -67.502  1.00  0.00     0.291 C 
HETATM   24  O   UNL     1     -15.937  14.119 -67.618  1.00  0.00    -0.260 OA
BRANCH  23  25
HETATM   25  O   UNL     1     -16.121  16.026 -66.345  1.00  0.00    -0.323 OA
HETATM   26  C   UNL     1     -16.690  15.247 -65.291  1.00  0.00     0.213 C 
ENDBRANCH  23  25
ENDBRANCH  19  23
ENDBRANCH  10  19
BRANCH   1  27
HETATM   27  C   UNL     1     -15.103  14.722 -71.397  1.00  0.00     0.002 C 
HETATM   28  C   UNL     1     -15.535  15.550 -72.593  1.00  0.00     0.005 C 
ENDBRANCH   1  27
BRANCH  14  29
HETATM   29  O   UNL     1     -13.066  12.870 -63.569  1.00  0.00    -0.355 OA
HETATM   30  C   UNL     1     -14.169  12.062 -63.175  1.00  0.00     0.210 C 
ENDBRANCH  14  29
TORSDOF 6
ENDMDL
MODEL 8
REMARK VINA RESULT:      -5.6     13.727     16.114
REMARK  6 active torsions:
REMARK  status: ('A' for Active; 'I' for Inactive)
REMARK    1  A    between atoms: C_2  and  C_3 
REMARK    2  A    between atoms: C_12  and  C_13 
REMARK    3  A    between atoms: C_13  and  C_17 
REMARK    4  A    between atoms: C_14  and  O_15 
REMARK    5  A    between atoms: C_17  and  O_19 
REMARK    6  A    between atoms: C_24  and  O_28 
ROOT
HETATM    1  C   UNL     1       9.535   3.799 -60.602  1.00  0.00     0.022 C 
HETATM    2  C   UNL     1       8.341   4.050 -59.679  1.00  0.00     0.278 C 
HETATM    3  N   UNL     1       7.667   2.812 -59.279  1.00  0.00     0.099 N 
HETATM    4  C   UNL     1       6.564   3.110 -58.323  1.00  0.00     0.278 C 
HETATM    5  C   UNL     1       7.013   3.431 -56.870  1.00  0.00     0.072 C 
HETATM    6  C   UNL     1       7.959   2.379 -56.413  1.00  0.00    -0.016 A 
HETATM    7  C   UNL     1       8.638   1.611 -57.335  1.00  0.00     0.050 A 
HETATM    8  C   UNL     1       8.527   1.693 -58.828  1.00  0.00     0.273 C 
HETATM    9  C   UNL     1       9.890   1.566 -59.542  1.00  0.00     0.052 C 
HETATM   10  C   UNL     1      10.592   2.882 -59.946  1.00  0.00     0.035 C 
HETATM   11  N   UNL     1       9.322   0.648 -56.644  1.00  0.00    -0.357 N 
HETATM   12  C   UNL     1       9.189   0.852 -55.289  1.00  0.00     0.046 A 
HETATM   13  C   UNL     1       8.344   1.953 -55.108  1.00  0.00     0.032 A 
HETATM   14  C   UNL     1       8.074   2.398 -53.791  1.00  0.00     0.081 A 
HETATM   15  C   UNL     1       8.649   1.696 -52.719  1.00  0.00     0.038 A 
HETATM   16  C   UNL     1       9.475   0.591 -52.935  1.00  0.00     0.005 A 
HETATM   17  C   UNL     1       9.759   0.147 -54.225  1.00  0.00     0.030 A 
HETATM   18  H   UNL     1       9.865  -0.098 -57.056  1.00  0.00     0.166 HD
ENDROOT
BRANCH  10  19
HETATM   19  C   UNL     1      11.546   3.426 -58.896  1.00  0.00     0.043 C 
HETATM   20  C   UNL     1      12.826   3.854 -59.007  1.00  0.00     0.147 C 
BRANCH  20  21
HETATM   21  O   UNL     1      13.711   4.004 -60.029  1.00  0.00    -0.367 OA
HETATM   22  C   UNL     1      14.165   5.280 -60.432  1.00  0.00     0.208 C 
ENDBRANCH  20  21
BRANCH  19  23
HETATM   23  C   UNL     1      11.098   3.609 -57.488  1.00  0.00     0.291 C 
HETATM   24  O   UNL     1      10.421   4.555 -57.112  1.00  0.00    -0.260 OA
BRANCH  23  25
HETATM   25  O   UNL     1      11.714   2.701 -56.687  1.00  0.00    -0.323 OA
HETATM   26  C   UNL     1      11.988   3.185 -55.370  1.00  0.00     0.213 C 
ENDBRANCH  23  25
ENDBRANCH  19  23
ENDBRANCH  10  19
BRANCH   1  27
HETATM   27  C   UNL     1      10.061   5.075 -61.292  1.00  0.00     0.002 C 
HETATM   28  C   UNL     1      11.051   4.914 -62.430  1.00  0.00     0.005 C 
ENDBRANCH   1  27
BRANCH  14  29
HETATM   29  O   UNL     1       7.263   3.495 -53.640  1.00  0.00    -0.355 OA
HETATM   30  C   UNL     1       5.953   3.234 -53.152  1.00  0.00     0.210 C 
ENDBRANCH  14  29
TORSDOF 6
ENDMDL
MODEL 9
REMARK VINA RESULT:      -5.5     12.641     16.836
REMARK  6 active torsions:
REMARK  status: ('A' for Active; 'I' for Inactive)
REMARK    1  A    between atoms: C_2  and  C_3 
REMARK    2  A    between atoms: C_12  and  C_13 
REMARK    3  A    between atoms: C_13  and  C_17 
REMARK    4  A    between atoms: C_14  and  O_15 
REMARK    5  A    between atoms: C_17  and  O_19 
REMARK    6  A    between atoms: C_24  and  O_28 
ROOT
HETATM    1  C   UNL     1      10.287   1.547 -59.370  1.00  0.00     0.022 C 
HETATM    2  C   UNL     1      11.701   1.148 -58.946  1.00  0.00     0.278 C 
HETATM    3  N   UNL     1      12.700   1.424 -59.981  1.00  0.00     0.099 N 
HETATM    4  C   UNL     1      14.064   1.088 -59.486  1.00  0.00     0.278 C 
HETATM    5  C   UNL     1      14.685   2.117 -58.498  1.00  0.00     0.072 C 
HETATM    6  C   UNL     1      14.556   3.480 -59.078  1.00  0.00    -0.016 A 
HETATM    7  C   UNL     1      13.607   3.735 -60.045  1.00  0.00     0.050 A 
HETATM    8  C   UNL     1      12.641   2.752 -60.636  1.00  0.00     0.273 C 
HETATM    9  C   UNL     1      11.227   3.339 -60.833  1.00  0.00     0.052 C 
HETATM   10  C   UNL     1      10.190   3.048 -59.725  1.00  0.00     0.035 C 
HETATM   11  N   UNL     1      13.803   5.015 -60.487  1.00  0.00    -0.357 N 
HETATM   12  C   UNL     1      14.785   5.628 -59.742  1.00  0.00     0.046 A 
HETATM   13  C   UNL     1      15.272   4.688 -58.827  1.00  0.00     0.032 A 
HETATM   14  C   UNL     1      16.273   5.083 -57.908  1.00  0.00     0.081 A 
HETATM   15  C   UNL     1      16.754   6.401 -57.971  1.00  0.00     0.038 A 
HETATM   16  C   UNL     1      16.258   7.310 -58.908  1.00  0.00     0.005 A 
HETATM   17  C   UNL     1      15.264   6.940 -59.813  1.00  0.00     0.030 A 
HETATM   18  H   UNL     1      13.295   5.463 -61.236  1.00  0.00     0.166 HD
ENDROOT
BRANCH  10  19
HETATM   19  C   UNL     1      10.135   4.101 -58.632  1.00  0.00     0.043 C 
HETATM   20  C   UNL     1      10.846   4.217 -57.485  1.00  0.00     0.147 C 
BRANCH  20  21
HETATM   21  O   UNL     1      11.855   3.519 -56.897  1.00  0.00    -0.367 OA
HETATM   22  C   UNL     1      11.659   2.812 -55.690  1.00  0.00     0.208 C 
ENDBRANCH  20  21
BRANCH  19  23
HETATM   23  C   UNL     1       9.223   5.272 -58.752  1.00  0.00     0.291 C 
HETATM   24  O   UNL     1       8.813   5.701 -59.820  1.00  0.00    -0.260 OA
BRANCH  23  25
HETATM   25  O   UNL     1       9.095   5.882 -57.545  1.00  0.00    -0.323 OA
HETATM   26  C   UNL     1       9.188   7.307 -57.607  1.00  0.00     0.213 C 
ENDBRANCH  23  25
ENDBRANCH  19  23
ENDBRANCH  10  19
BRANCH   1  27
HETATM   27  C   UNL     1       9.184   0.982 -58.451  1.00  0.00     0.002 C 
HETATM   28  C   UNL     1       9.333  -0.442 -57.951  1.00  0.00     0.005 C 
ENDBRANCH   1  27
BRANCH  14  29
HETATM   29  O   UNL     1      16.717   4.150 -57.004  1.00  0.00    -0.355 OA
HETATM   30  C   UNL     1      16.136   4.219 -55.707  1.00  0.00     0.210 C 
ENDBRANCH  14  29
TORSDOF 6
ENDMDL
MODEL 10
REMARK VINA RESULT:      -5.5     14.285     16.040
REMARK  6 active torsions:
REMARK  status: ('A' for Active; 'I' for Inactive)
REMARK    1  A    between atoms: C_2  and  C_3 
REMARK    2  A    between atoms: C_12  and  C_13 
REMARK    3  A    between atoms: C_13  and  C_17 
REMARK    4  A    between atoms: C_14  and  O_15 
REMARK    5  A    between atoms: C_17  and  O_19 
REMARK    6  A    between atoms: C_24  and  O_28 
ROOT
HETATM    1  C   UNL     1       7.699   2.397 -56.737  1.00  0.00     0.022 C 
HETATM    2  C   UNL     1       7.775   2.264 -58.259  1.00  0.00     0.278 C 
HETATM    3  N   UNL     1       7.946   3.555 -58.930  1.00  0.00     0.099 N 
HETATM    4  C   UNL     1       8.091   3.358 -60.400  1.00  0.00     0.278 C 
HETATM    5  C   UNL     1       9.479   2.838 -60.868  1.00  0.00     0.072 C 
HETATM    6  C   UNL     1      10.541   3.675 -60.249  1.00  0.00    -0.016 A 
HETATM    7  C   UNL     1      10.275   4.400 -59.107  1.00  0.00     0.050 A 
HETATM    8  C   UNL     1       8.969   4.472 -58.374  1.00  0.00     0.273 C 
HETATM    9  C   UNL     1       9.136   4.437 -56.840  1.00  0.00     0.052 C 
HETATM   10  C   UNL     1       8.963   3.065 -56.150  1.00  0.00     0.035 C 
HETATM   11  N   UNL     1      11.374   5.171 -58.844  1.00  0.00    -0.357 N 
HETATM   12  C   UNL     1      12.386   4.871 -59.727  1.00  0.00     0.046 A 
HETATM   13  C   UNL     1      11.897   3.913 -60.622  1.00  0.00     0.032 A 
HETATM   14  C   UNL     1      12.764   3.402 -61.617  1.00  0.00     0.081 A 
HETATM   15  C   UNL     1      14.076   3.900 -61.679  1.00  0.00     0.038 A 
HETATM   16  C   UNL     1      14.527   4.869 -60.781  1.00  0.00     0.005 A 
HETATM   17  C   UNL     1      13.689   5.375 -59.788  1.00  0.00     0.030 A 
HETATM   18  H   UNL     1      11.451   5.851 -58.101  1.00  0.00     0.166 HD
ENDROOT
BRANCH  10  19
HETATM   19  C   UNL     1      10.255   2.279 -55.995  1.00  0.00     0.043 C 
HETATM   20  C   UNL     1      10.869   1.421 -56.843  1.00  0.00     0.147 C 
BRANCH  20  21
HETATM   21  O   UNL     1      10.631   0.967 -58.103  1.00  0.00    -0.367 OA
HETATM   22  C   UNL     1      11.660   0.411 -58.895  1.00  0.00     0.208 C 
ENDBRANCH  20  21
BRANCH  19  23
HETATM   23  C   UNL     1      11.094   2.433 -54.775  1.00  0.00     0.291 C 
HETATM   24  O   UNL     1      10.696   2.186 -53.646  1.00  0.00    -0.260 OA
BRANCH  23  25
HETATM   25  O   UNL     1      12.256   3.063 -55.092  1.00  0.00    -0.323 OA
HETATM   26  C   UNL     1      13.210   3.081 -54.028  1.00  0.00     0.213 C 
ENDBRANCH  23  25
ENDBRANCH  19  23
ENDBRANCH  10  19
BRANCH   1  27
HETATM   27  C   UNL     1       7.202   1.119 -56.030  1.00  0.00     0.002 C 
HETATM   28  C   UNL     1       7.370  -0.206 -56.750  1.00  0.00     0.005 C 
ENDBRANCH   1  27
BRANCH  14  29
HETATM   29  O   UNL     1      12.270   2.444 -62.467  1.00  0.00    -0.355 OA
HETATM   30  C   UNL     1      12.938   1.188 -62.441  1.00  0.00     0.210 C 
ENDBRANCH  14  29
TORSDOF 6
ENDMDL
