MODEL 1
REMARK VINA RESULT:      -0.1      0.000      0.000
REMARK  2 active torsions:
REMARK  status: ('A' for Active; 'I' for Inactive)
REMARK    1  A    between atoms: C_12  and  O_15 
REMARK    2  A    between atoms: C_18  and  O_21 
ROOT
HETATM    1  C   UNL     1     -16.643  -8.829 -31.557  1.00  0.00     0.143 C 
HETATM    2  N   UNL     1     -17.824  -8.225 -30.986  1.00  0.00    -0.411 N 
HETATM    3  C   UNL     1     -18.805  -7.708 -31.933  1.00  0.00     0.118 C 
HETATM    4  C   UNL     1     -19.419  -6.341 -31.593  1.00  0.00     0.037 C 
HETATM    5  C   UNL     1     -19.579  -6.076 -30.071  1.00  0.00     0.030 C 
HETATM    6  C   UNL     1     -19.113  -7.210 -29.179  1.00  0.00     0.046 C 
HETATM    7  C   UNL     1     -17.686  -7.544 -29.699  1.00  0.00     0.091 C 
HETATM    8  C   UNL     1     -16.732  -6.246 -29.697  1.00  0.00     0.065 C 
HETATM    9  C   UNL     1     -17.424  -4.899 -29.575  1.00  0.00    -0.046 A 
HETATM   10  C   UNL     1     -18.785  -4.876 -29.775  1.00  0.00    -0.003 A 
HETATM   11  C   UNL     1     -19.616  -3.771 -29.697  1.00  0.00     0.110 A 
HETATM   12  C   UNL     1     -19.059  -2.557 -29.398  1.00  0.00     0.099 A 
HETATM   13  C   UNL     1     -17.671  -2.499 -29.192  1.00  0.00     0.040 A 
HETATM   14  C   UNL     1     -16.853  -3.663 -29.286  1.00  0.00     0.011 A 
HETATM   15  O   UNL     1     -20.954  -4.116 -29.877  1.00  0.00    -0.338 OA
HETATM   16  C   UNL     1     -20.883  -5.521 -29.506  1.00  0.00     0.175 C 
HETATM   17  C   UNL     1     -22.023  -6.508 -29.788  1.00  0.00     0.171 C 
HETATM   18  C   UNL     1     -21.528  -7.920 -29.469  1.00  0.00     0.004 C 
HETATM   19  C   UNL     1     -20.242  -8.243 -29.171  1.00  0.00    -0.020 C 
ENDROOT
BRANCH  12  20
HETATM   20  O   UNL     1     -19.814  -1.439 -29.244  1.00  0.00    -0.358 OA
HETATM   21  H   UNL     1     -20.185  -1.483 -28.344  1.00  0.00     0.217 HD
ENDBRANCH  12  20
BRANCH  17  22
HETATM   22  O   UNL     1     -22.467  -6.492 -31.135  1.00  0.00    -0.389 OA
HETATM   23  H   UNL     1     -23.426  -6.668 -31.117  1.00  0.00     0.210 HD
ENDBRANCH  17  22
TORSDOF 2
ENDMDL
MODEL 2
REMARK VINA RESULT:      -0.0      2.090      4.531
REMARK  2 active torsions:
REMARK  status: ('A' for Active; 'I' for Inactive)
REMARK    1  A    between atoms: C_12  and  O_15 
REMARK    2  A    between atoms: C_18  and  O_21 
ROOT
HETATM    1  C   UNL     1     -15.531 -10.183 -30.452  1.00  0.00     0.143 C 
HETATM    2  N   UNL     1     -16.210  -8.909 -30.505  1.00  0.00    -0.411 N 
HETATM    3  C   UNL     1     -17.443  -8.805 -29.735  1.00  0.00     0.118 C 
HETATM    4  C   UNL     1     -18.614  -8.087 -30.425  1.00  0.00     0.037 C 
HETATM    5  C   UNL     1     -18.183  -6.941 -31.381  1.00  0.00     0.030 C 
HETATM    6  C   UNL     1     -16.686  -6.716 -31.465  1.00  0.00     0.046 C 
HETATM    7  C   UNL     1     -16.102  -8.132 -31.739  1.00  0.00     0.091 C 
HETATM    8  C   UNL     1     -16.759  -8.805 -33.047  1.00  0.00     0.065 C 
HETATM    9  C   UNL     1     -18.046  -8.176 -33.556  1.00  0.00    -0.046 A 
HETATM   10  C   UNL     1     -18.690  -7.301 -32.712  1.00  0.00    -0.003 A 
HETATM   11  C   UNL     1     -19.858  -6.605 -32.973  1.00  0.00     0.110 A 
HETATM   12  C   UNL     1     -20.467  -6.787 -34.185  1.00  0.00     0.099 A 
HETATM   13  C   UNL     1     -19.874  -7.677 -35.096  1.00  0.00     0.040 A 
HETATM   14  C   UNL     1     -18.671  -8.375 -34.783  1.00  0.00     0.011 A 
HETATM   15  O   UNL     1     -20.191  -5.743 -31.931  1.00  0.00    -0.338 OA
HETATM   16  C   UNL     1     -18.874  -5.582 -31.334  1.00  0.00     0.175 C 
HETATM   17  C   UNL     1     -18.666  -4.950 -29.951  1.00  0.00     0.171 C 
HETATM   18  C   UNL     1     -17.201  -5.138 -29.551  1.00  0.00     0.004 C 
HETATM   19  C   UNL     1     -16.303  -5.900 -30.229  1.00  0.00    -0.020 C 
ENDROOT
BRANCH  12  20
HETATM   20  O   UNL     1     -21.581  -6.096 -34.541  1.00  0.00    -0.358 OA
HETATM   21  H   UNL     1     -21.849  -5.590 -33.753  1.00  0.00     0.217 HD
ENDBRANCH  12  20
BRANCH  17  22
HETATM   22  O   UNL     1     -19.476  -5.524 -28.938  1.00  0.00    -0.389 OA
HETATM   23  H   UNL     1     -19.284  -5.037 -28.116  1.00  0.00     0.210 HD
ENDBRANCH  17  22
TORSDOF 2
ENDMDL
MODEL 3
REMARK VINA RESULT:       0.0     38.239     41.626
REMARK  2 active torsions:
REMARK  status: ('A' for Active; 'I' for Inactive)
REMARK    1  A    between atoms: C_12  and  O_15 
REMARK    2  A    between atoms: C_18  and  O_21 
ROOT
HETATM    1  C   UNL     1       6.201 -37.529 -45.764  1.00  0.00     0.143 C 
HETATM    2  N   UNL     1       4.957 -38.246 -45.612  1.00  0.00    -0.411 N 
HETATM    3  C   UNL     1       4.142 -38.385 -46.813  1.00  0.00     0.118 C 
HETATM    4  C   UNL     1       2.632 -38.160 -46.636  1.00  0.00     0.037 C 
HETATM    5  C   UNL     1       2.080 -38.606 -45.255  1.00  0.00     0.030 C 
HETATM    6  C   UNL     1       3.117 -39.194 -44.318  1.00  0.00     0.046 C 
HETATM    7  C   UNL     1       4.271 -38.152 -44.323  1.00  0.00     0.091 C 
HETATM    8  C   UNL     1       3.750 -36.683 -43.917  1.00  0.00     0.065 C 
HETATM    9  C   UNL     1       2.248 -36.460 -43.973  1.00  0.00    -0.046 A 
HETATM   10  C   UNL     1       1.500 -37.406 -44.636  1.00  0.00    -0.003 A 
HETATM   11  C   UNL     1       0.125 -37.414 -44.794  1.00  0.00     0.110 A 
HETATM   12  C   UNL     1      -0.599 -36.386 -44.254  1.00  0.00     0.099 A 
HETATM   13  C   UNL     1       0.098 -35.374 -43.573  1.00  0.00     0.040 A 
HETATM   14  C   UNL     1       1.516 -35.406 -43.436  1.00  0.00     0.011 A 
HETATM   15  O   UNL     1      -0.314 -38.563 -45.449  1.00  0.00    -0.338 OA
HETATM   16  C   UNL     1       0.807 -39.441 -45.154  1.00  0.00     0.175 C 
HETATM   17  C   UNL     1       1.018 -40.782 -45.869  1.00  0.00     0.171 C 
HETATM   18  C   UNL     1       2.390 -41.330 -45.473  1.00  0.00     0.004 C 
HETATM   19  C   UNL     1       3.323 -40.644 -44.762  1.00  0.00    -0.020 C 
ENDROOT
BRANCH  12  20
HETATM   20  O   UNL     1      -1.955 -36.352 -44.314  1.00  0.00    -0.358 OA
HETATM   21  H   UNL     1      -2.244 -37.275 -44.435  1.00  0.00     0.217 HD
ENDBRANCH  12  20
BRANCH  17  22
HETATM   22  O   UNL     1       0.976 -40.682 -47.284  1.00  0.00    -0.389 OA
HETATM   23  H   UNL     1       1.562 -39.944 -47.531  1.00  0.00     0.210 HD
ENDBRANCH  17  22
TORSDOF 2
ENDMDL
MODEL 4
REMARK VINA RESULT:       0.0     38.039     41.088
REMARK  2 active torsions:
REMARK  status: ('A' for Active; 'I' for Inactive)
REMARK    1  A    between atoms: C_12  and  O_15 
REMARK    2  A    between atoms: C_18  and  O_21 
ROOT
HETATM    1  C   UNL     1       6.201 -37.529 -45.764  1.00  0.00     0.143 C 
HETATM    2  N   UNL     1       4.798 -37.856 -45.873  1.00  0.00    -0.411 N 
HETATM    3  C   UNL     1       4.299 -38.110 -47.218  1.00  0.00     0.118 C 
HETATM    4  C   UNL     1       2.937 -37.488 -47.564  1.00  0.00     0.037 C 
HETATM    5  C   UNL     1       1.955 -37.399 -46.363  1.00  0.00     0.030 C 
HETATM    6  C   UNL     1       2.500 -37.947 -45.058  1.00  0.00     0.046 C 
HETATM    7  C   UNL     1       3.884 -37.256 -44.901  1.00  0.00     0.091 C 
HETATM    8  C   UNL     1       3.759 -35.651 -44.960  1.00  0.00     0.065 C 
HETATM    9  C   UNL     1       2.460 -35.095 -45.520  1.00  0.00    -0.046 A 
HETATM   10  C   UNL     1       1.642 -35.974 -46.191  1.00  0.00    -0.003 A 
HETATM   11  C   UNL     1       0.413 -35.691 -46.763  1.00  0.00     0.110 A 
HETATM   12  C   UNL     1      -0.066 -34.412 -46.677  1.00  0.00     0.099 A 
HETATM   13  C   UNL     1       0.721 -33.454 -46.017  1.00  0.00     0.040 A 
HETATM   14  C   UNL     1       1.982 -33.790 -45.444  1.00  0.00     0.011 A 
HETATM   15  O   UNL     1      -0.185 -36.831 -47.294  1.00  0.00    -0.338 OA
HETATM   16  C   UNL     1       0.502 -37.843 -46.506  1.00  0.00     0.175 C 
HETATM   17  C   UNL     1       0.456 -39.335 -46.855  1.00  0.00     0.171 C 
HETATM   18  C   UNL     1       1.453 -40.072 -45.958  1.00  0.00     0.004 C 
HETATM   19  C   UNL     1       2.350 -39.468 -45.136  1.00  0.00    -0.020 C 
ENDROOT
BRANCH  12  20
HETATM   20  O   UNL     1      -1.288 -34.069 -47.160  1.00  0.00    -0.358 OA
HETATM   21  H   UNL     1      -1.810 -34.892 -47.188  1.00  0.00     0.217 HD
ENDBRANCH  12  20
BRANCH  17  22
HETATM   22  O   UNL     1       0.792 -39.612 -48.206  1.00  0.00    -0.389 OA
HETATM   23  H   UNL     1       1.619 -39.132 -48.394  1.00  0.00     0.210 HD
ENDBRANCH  17  22
TORSDOF 2
ENDMDL
MODEL 5
REMARK VINA RESULT:       0.0     30.275     32.144
REMARK  2 active torsions:
REMARK  status: ('A' for Active; 'I' for Inactive)
REMARK    1  A    between atoms: C_12  and  O_15 
REMARK    2  A    between atoms: C_18  and  O_21 
ROOT
HETATM    1  C   UNL     1       5.311 -14.779 -45.004  1.00  0.00     0.143 C 
HETATM    2  N   UNL     1       5.776 -16.103 -44.662  1.00  0.00    -0.411 N 
HETATM    3  C   UNL     1       6.734 -16.706 -45.581  1.00  0.00     0.118 C 
HETATM    4  C   UNL     1       6.511 -18.189 -45.915  1.00  0.00     0.037 C 
HETATM    5  C   UNL     1       5.907 -19.020 -44.750  1.00  0.00     0.030 C 
HETATM    6  C   UNL     1       5.649 -18.234 -43.479  1.00  0.00     0.046 C 
HETATM    7  C   UNL     1       4.850 -16.988 -43.956  1.00  0.00     0.091 C 
HETATM    8  C   UNL     1       3.526 -17.405 -44.773  1.00  0.00     0.065 C 
HETATM    9  C   UNL     1       3.462 -18.840 -45.269  1.00  0.00    -0.046 A 
HETATM   10  C   UNL     1       4.634 -19.561 -45.246  1.00  0.00    -0.003 A 
HETATM   11  C   UNL     1       4.804 -20.880 -45.631  1.00  0.00     0.110 A 
HETATM   12  C   UNL     1       3.716 -21.568 -46.095  1.00  0.00     0.099 A 
HETATM   13  C   UNL     1       2.485 -20.893 -46.160  1.00  0.00     0.040 A 
HETATM   14  C   UNL     1       2.358 -19.533 -45.754  1.00  0.00     0.011 A 
HETATM   15  O   UNL     1       6.105 -21.323 -45.403  1.00  0.00    -0.338 OA
HETATM   16  C   UNL     1       6.495 -20.376 -44.370  1.00  0.00     0.175 C 
HETATM   17  C   UNL     1       7.950 -20.194 -43.922  1.00  0.00     0.171 C 
HETATM   18  C   UNL     1       8.021 -18.981 -42.992  1.00  0.00     0.004 C 
HETATM   19  C   UNL     1       6.998 -18.116 -42.766  1.00  0.00    -0.020 C 
ENDROOT
BRANCH  12  20
HETATM   20  O   UNL     1       3.787 -22.881 -46.436  1.00  0.00    -0.358 OA
HETATM   21  H   UNL     1       4.580 -22.973 -46.996  1.00  0.00     0.217 HD
ENDBRANCH  12  20
BRANCH  17  22
HETATM   22  O   UNL     1       8.852 -19.977 -44.996  1.00  0.00    -0.389 OA
HETATM   23  H   UNL     1       8.650 -20.649 -45.672  1.00  0.00     0.210 HD
ENDBRANCH  17  22
TORSDOF 2
ENDMDL
MODEL 6
REMARK VINA RESULT:       0.0     28.188     30.361
REMARK  2 active torsions:
REMARK  status: ('A' for Active; 'I' for Inactive)
REMARK    1  A    between atoms: C_12  and  O_15 
REMARK    2  A    between atoms: C_18  and  O_21 
ROOT
HETATM    1  C   UNL     1       5.505 -13.963 -43.951  1.00  0.00     0.143 C 
HETATM    2  N   UNL     1       5.520 -15.399 -43.789  1.00  0.00    -0.411 N 
HETATM    3  C   UNL     1       6.112 -16.164 -44.879  1.00  0.00     0.118 C 
HETATM    4  C   UNL     1       5.360 -17.436 -45.300  1.00  0.00     0.037 C 
HETATM    5  C   UNL     1       4.632 -18.160 -44.135  1.00  0.00     0.030 C 
HETATM    6  C   UNL     1       4.793 -17.498 -42.780  1.00  0.00     0.046 C 
HETATM    7  C   UNL     1       4.425 -16.009 -43.036  1.00  0.00     0.091 C 
HETATM    8  C   UNL     1       2.961 -15.861 -43.691  1.00  0.00     0.065 C 
HETATM    9  C   UNL     1       2.358 -17.120 -44.290  1.00  0.00    -0.046 A 
HETATM   10  C   UNL     1       3.207 -18.185 -44.491  1.00  0.00    -0.003 A 
HETATM   11  C   UNL     1       2.872 -19.426 -45.004  1.00  0.00     0.110 A 
HETATM   12  C   UNL     1       1.573 -19.653 -45.367  1.00  0.00     0.099 A 
HETATM   13  C   UNL     1       0.649 -18.607 -45.203  1.00  0.00     0.040 A 
HETATM   14  C   UNL     1       1.039 -17.343 -44.672  1.00  0.00     0.011 A 
HETATM   15  O   UNL     1       3.959 -20.299 -44.997  1.00  0.00    -0.338 OA
HETATM   16  C   UNL     1       4.755 -19.670 -43.954  1.00  0.00     0.175 C 
HETATM   17  C   UNL     1       6.222 -20.036 -43.700  1.00  0.00     0.171 C 
HETATM   18  C   UNL     1       6.801 -19.041 -42.692  1.00  0.00     0.004 C 
HETATM   19  C   UNL     1       6.166 -17.922 -42.255  1.00  0.00    -0.020 C 
ENDROOT
BRANCH  12  20
HETATM   20  O   UNL     1       1.153 -20.862 -45.821  1.00  0.00    -0.358 OA
HETATM   21  H   UNL     1       1.804 -21.140 -46.492  1.00  0.00     0.217 HD
ENDBRANCH  12  20
BRANCH  17  22
HETATM   22  O   UNL     1       7.027 -19.997 -44.868  1.00  0.00    -0.389 OA
HETATM   23  H   UNL     1       6.570 -19.418 -45.505  1.00  0.00     0.210 HD
ENDBRANCH  17  22
TORSDOF 2
ENDMDL
MODEL 7
REMARK VINA RESULT:       0.0     27.201     29.348
REMARK  2 active torsions:
REMARK  status: ('A' for Active; 'I' for Inactive)
REMARK    1  A    between atoms: C_12  and  O_15 
REMARK    2  A    between atoms: C_18  and  O_21 
ROOT
HETATM    1  C   UNL     1       5.029 -14.634 -42.350  1.00  0.00     0.143 C 
HETATM    2  N   UNL     1       5.031 -16.036 -42.002  1.00  0.00    -0.411 N 
HETATM    3  C   UNL     1       5.655 -16.937 -42.964  1.00  0.00     0.118 C 
HETATM    4  C   UNL     1       4.909 -18.252 -43.241  1.00  0.00     0.037 C 
HETATM    5  C   UNL     1       4.140 -18.818 -42.016  1.00  0.00     0.030 C 
HETATM    6  C   UNL     1       4.260 -17.986 -40.754  1.00  0.00     0.046 C 
HETATM    7  C   UNL     1       3.909 -16.542 -41.212  1.00  0.00     0.091 C 
HETATM    8  C   UNL     1       2.468 -16.478 -41.929  1.00  0.00     0.065 C 
HETATM    9  C   UNL     1       1.878 -17.804 -42.379  1.00  0.00    -0.046 A 
HETATM   10  C   UNL     1       2.727 -18.887 -42.413  1.00  0.00    -0.003 A 
HETATM   11  C   UNL     1       2.403 -20.184 -42.771  1.00  0.00     0.110 A 
HETATM   12  C   UNL     1       1.114 -20.454 -43.144  1.00  0.00     0.099 A 
HETATM   13  C   UNL     1       0.191 -19.395 -43.147  1.00  0.00     0.040 A 
HETATM   14  C   UNL     1       0.571 -18.073 -42.772  1.00  0.00     0.011 A 
HETATM   15  O   UNL     1       3.483 -21.049 -42.616  1.00  0.00    -0.338 OA
HETATM   16  C   UNL     1       4.249 -20.292 -41.637  1.00  0.00     0.175 C 
HETATM   17  C   UNL     1       5.705 -20.624 -41.291  1.00  0.00     0.171 C 
HETATM   18  C   UNL     1       6.256 -19.507 -40.402  1.00  0.00     0.004 C 
HETATM   19  C   UNL     1       5.614 -18.341 -40.134  1.00  0.00    -0.020 C 
ENDROOT
BRANCH  12  20
HETATM   20  O   UNL     1       0.703 -21.711 -43.451  1.00  0.00    -0.358 OA
HETATM   21  H   UNL     1       1.331 -22.316 -43.016  1.00  0.00     0.217 HD
ENDBRANCH  12  20
BRANCH  17  22
HETATM   22  O   UNL     1       6.547 -20.737 -42.427  1.00  0.00    -0.389 OA
HETATM   23  H   UNL     1       6.122 -20.232 -43.143  1.00  0.00     0.210 HD
ENDBRANCH  17  22
TORSDOF 2
ENDMDL
MODEL 8
REMARK VINA RESULT:       0.0     28.631     31.188
REMARK  2 active torsions:
REMARK  status: ('A' for Active; 'I' for Inactive)
REMARK    1  A    between atoms: C_12  and  O_15 
REMARK    2  A    between atoms: C_18  and  O_21 
ROOT
HETATM    1  C   UNL     1       7.212 -13.423 -42.361  1.00  0.00     0.143 C 
HETATM    2  N   UNL     1       7.452 -14.840 -42.214  1.00  0.00    -0.411 N 
HETATM    3  C   UNL     1       7.887 -15.546 -43.413  1.00  0.00     0.118 C 
HETATM    4  C   UNL     1       7.236 -16.915 -43.667  1.00  0.00     0.037 C 
HETATM    5  C   UNL     1       6.884 -17.701 -42.374  1.00  0.00     0.030 C 
HETATM    6  C   UNL     1       7.249 -16.993 -41.083  1.00  0.00     0.046 C 
HETATM    7  C   UNL     1       6.640 -15.571 -41.242  1.00  0.00     0.091 C 
HETATM    8  C   UNL     1       5.062 -15.630 -41.558  1.00  0.00     0.065 C 
HETATM    9  C   UNL     1       4.514 -16.971 -42.017  1.00  0.00    -0.046 A 
HETATM   10  C   UNL     1       5.432 -17.920 -42.407  1.00  0.00    -0.003 A 
HETATM   11  C   UNL     1       5.161 -19.206 -42.841  1.00  0.00     0.110 A 
HETATM   12  C   UNL     1       3.855 -19.609 -42.910  1.00  0.00     0.099 A 
HETATM   13  C   UNL     1       2.859 -18.689 -42.540  1.00  0.00     0.040 A 
HETATM   14  C   UNL     1       3.185 -17.373 -42.100  1.00  0.00     0.011 A 
HETATM   15  O   UNL     1       6.328 -19.928 -43.080  1.00  0.00    -0.338 OA
HETATM   16  C   UNL     1       7.243 -19.177 -42.234  1.00  0.00     0.175 C 
HETATM   17  C   UNL     1       8.766 -19.343 -42.313  1.00  0.00     0.171 C 
HETATM   18  C   UNL     1       9.414 -18.258 -41.451  1.00  0.00     0.004 C 
HETATM   19  C   UNL     1       8.748 -17.222 -40.877  1.00  0.00    -0.020 C 
ENDROOT
BRANCH  12  20
HETATM   20  O   UNL     1       3.510 -20.873 -43.269  1.00  0.00    -0.358 OA
HETATM   21  H   UNL     1       4.291 -21.428 -43.090  1.00  0.00     0.217 HD
ENDBRANCH  12  20
BRANCH  17  22
HETATM   22  O   UNL     1       9.282 -19.225 -43.629  1.00  0.00    -0.389 OA
HETATM   23  H   UNL     1       9.675 -20.088 -43.855  1.00  0.00     0.210 HD
ENDBRANCH  17  22
TORSDOF 2
ENDMDL
MODEL 9
REMARK VINA RESULT:       0.0     27.484     30.386
REMARK  2 active torsions:
REMARK  status: ('A' for Active; 'I' for Inactive)
REMARK    1  A    between atoms: C_12  and  O_15 
REMARK    2  A    between atoms: C_18  and  O_21 
ROOT
HETATM    1  C   UNL     1       7.522 -11.966 -43.518  1.00  0.00     0.143 C 
HETATM    2  N   UNL     1       7.356 -13.400 -43.566  1.00  0.00    -0.411 N 
HETATM    3  C   UNL     1       7.436 -14.013 -44.887  1.00  0.00     0.118 C 
HETATM    4  C   UNL     1       6.394 -15.099 -45.193  1.00  0.00     0.037 C 
HETATM    5  C   UNL     1       5.971 -15.942 -43.959  1.00  0.00     0.030 C 
HETATM    6  C   UNL     1       6.663 -15.559 -42.664  1.00  0.00     0.046 C 
HETATM    7  C   UNL     1       6.477 -14.017 -42.574  1.00  0.00     0.091 C 
HETATM    8  C   UNL     1       4.925 -13.597 -42.661  1.00  0.00     0.065 C 
HETATM    9  C   UNL     1       3.967 -14.655 -43.182  1.00  0.00    -0.046 A 
HETATM   10  C   UNL     1       4.523 -15.749 -43.804  1.00  0.00    -0.003 A 
HETATM   11  C   UNL     1       3.846 -16.834 -44.335  1.00  0.00     0.110 A 
HETATM   12  C   UNL     1       2.480 -16.851 -44.257  1.00  0.00     0.099 A 
HETATM   13  C   UNL     1       1.839 -15.760 -43.647  1.00  0.00     0.040 A 
HETATM   14  C   UNL     1       2.577 -14.663 -43.115  1.00  0.00     0.011 A 
HETATM   15  O   UNL     1       4.722 -17.804 -44.820  1.00  0.00    -0.338 OA
HETATM   16  C   UNL     1       5.900 -17.464 -44.037  1.00  0.00     0.175 C 
HETATM   17  C   UNL     1       7.292 -18.024 -44.355  1.00  0.00     0.171 C 
HETATM   18  C   UNL     1       8.316 -17.297 -43.481  1.00  0.00     0.004 C 
HETATM   19  C   UNL     1       8.044 -16.215 -42.705  1.00  0.00    -0.020 C 
ENDROOT
BRANCH  12  20
HETATM   20  O   UNL     1       1.748 -17.906 -44.701  1.00  0.00    -0.358 OA
HETATM   21  H   UNL     1       1.213 -18.202 -43.942  1.00  0.00     0.217 HD
ENDBRANCH  12  20
BRANCH  17  22
HETATM   22  O   UNL     1       7.675 -17.859 -45.711  1.00  0.00    -0.389 OA
HETATM   23  H   UNL     1       7.776 -18.752 -46.085  1.00  0.00     0.210 HD
ENDBRANCH  17  22
TORSDOF 2
ENDMDL
MODEL 10
REMARK VINA RESULT:       0.0     29.683     32.580
REMARK  2 active torsions:
REMARK  status: ('A' for Active; 'I' for Inactive)
REMARK    1  A    between atoms: C_12  and  O_15 
REMARK    2  A    between atoms: C_18  and  O_21 
ROOT
HETATM    1  C   UNL     1       9.364 -12.858 -44.394  1.00  0.00     0.143 C 
HETATM    2  N   UNL     1       9.199 -14.292 -44.443  1.00  0.00    -0.411 N 
HETATM    3  C   UNL     1       9.279 -14.905 -45.763  1.00  0.00     0.118 C 
HETATM    4  C   UNL     1       8.236 -15.992 -46.070  1.00  0.00     0.037 C 
HETATM    5  C   UNL     1       7.813 -16.834 -44.835  1.00  0.00     0.030 C 
HETATM    6  C   UNL     1       8.505 -16.451 -43.540  1.00  0.00     0.046 C 
HETATM    7  C   UNL     1       8.320 -14.910 -43.450  1.00  0.00     0.091 C 
HETATM    8  C   UNL     1       6.767 -14.489 -43.537  1.00  0.00     0.065 C 
HETATM    9  C   UNL     1       5.809 -15.548 -44.058  1.00  0.00    -0.046 A 
HETATM   10  C   UNL     1       6.365 -16.642 -44.680  1.00  0.00    -0.003 A 
HETATM   11  C   UNL     1       5.689 -17.727 -45.211  1.00  0.00     0.110 A 
HETATM   12  C   UNL     1       4.323 -17.744 -45.134  1.00  0.00     0.099 A 
HETATM   13  C   UNL     1       3.682 -16.653 -44.523  1.00  0.00     0.040 A 
HETATM   14  C   UNL     1       4.420 -15.555 -43.992  1.00  0.00     0.011 A 
HETATM   15  O   UNL     1       6.564 -18.696 -45.696  1.00  0.00    -0.338 OA
HETATM   16  C   UNL     1       7.743 -18.356 -44.914  1.00  0.00     0.175 C 
HETATM   17  C   UNL     1       9.135 -18.916 -45.231  1.00  0.00     0.171 C 
HETATM   18  C   UNL     1      10.159 -18.189 -44.357  1.00  0.00     0.004 C 
HETATM   19  C   UNL     1       9.886 -17.107 -43.581  1.00  0.00    -0.020 C 
ENDROOT
BRANCH  12  20
HETATM   20  O   UNL     1       3.590 -18.798 -45.577  1.00  0.00    -0.358 OA
HETATM   21  H   UNL     1       3.055 -19.094 -44.818  1.00  0.00     0.217 HD
ENDBRANCH  12  20
BRANCH  17  22
HETATM   22  O   UNL     1       9.518 -18.751 -46.587  1.00  0.00    -0.389 OA
HETATM   23  H   UNL     1       9.618 -19.645 -46.962  1.00  0.00     0.210 HD
ENDBRANCH  17  22
TORSDOF 2
ENDMDL
