MODEL 1
REMARK VINA RESULT:      -0.0      0.000      0.000
REMARK  2 active torsions:
REMARK  status: ('A' for Active; 'I' for Inactive)
REMARK    1  A    between atoms: C_7  and  O_21 
REMARK    2  A    between atoms: C_16  and  O_19 
ROOT
HETATM    1  C   UNL     1     -15.508 -10.659 -33.345  1.00  0.00     0.310 C 
HETATM    2  N   UNL     1     -15.778  -9.480 -32.521  1.00  0.00     0.093 N 
HETATM    3  C   UNL     1     -14.527  -9.003 -31.890  1.00  0.00     0.274 C 
HETATM    4  C   UNL     1     -14.667  -7.651 -31.148  1.00  0.00     0.052 C 
HETATM    5  C   UNL     1     -15.539  -6.668 -31.956  1.00  0.00     0.050 C 
HETATM    6  C   UNL     1     -15.225  -5.169 -31.959  1.00  0.00     0.203 C 
HETATM    7  C   UNL     1     -13.929  -4.988 -32.700  1.00  0.00     0.076 C 
HETATM    8  C   UNL     1     -13.837  -5.648 -33.878  1.00  0.00     0.035 C 
HETATM    9  C   UNL     1     -14.858  -6.643 -34.289  1.00  0.00     0.009 C 
HETATM   10  C   UNL     1     -15.660  -7.188 -33.343  1.00  0.00    -0.030 C 
HETATM   11  C   UNL     1     -16.512  -8.438 -33.312  1.00  0.00     0.257 C 
HETATM   12  C   UNL     1     -17.932  -8.227 -32.618  1.00  0.00     0.079 C 
HETATM   13  C   UNL     1     -17.976  -7.196 -31.509  1.00  0.00    -0.045 A 
HETATM   14  C   UNL     1     -16.829  -6.474 -31.271  1.00  0.00     0.001 A 
HETATM   15  C   UNL     1     -16.748  -5.345 -30.462  1.00  0.00     0.111 A 
HETATM   16  C   UNL     1     -17.854  -4.937 -29.763  1.00  0.00     0.099 A 
HETATM   17  C   UNL     1     -19.032  -5.680 -29.907  1.00  0.00     0.040 A 
HETATM   18  C   UNL     1     -19.100  -6.798 -30.786  1.00  0.00     0.011 A 
HETATM   19  O   UNL     1     -15.531  -4.677 -30.631  1.00  0.00    -0.334 OA
ENDROOT
BRANCH   7  20
HETATM   20  O   UNL     1     -12.981  -4.102 -32.245  1.00  0.00    -0.357 OA
HETATM   21  C   UNL     1     -12.029  -4.760 -31.410  1.00  0.00     0.209 C 
ENDBRANCH   7  20
BRANCH  16  22
HETATM   22  O   UNL     1     -17.851  -3.803 -29.015  1.00  0.00    -0.358 OA
HETATM   23  H   UNL     1     -18.776  -3.498 -28.985  1.00  0.00     0.217 HD
ENDBRANCH  16  22
TORSDOF 2
ENDMDL
MODEL 2
REMARK VINA RESULT:       0.0     22.962     25.915
REMARK  2 active torsions:
REMARK  status: ('A' for Active; 'I' for Inactive)
REMARK    1  A    between atoms: C_7  and  O_21 
REMARK    2  A    between atoms: C_16  and  O_19 
ROOT
HETATM    1  C   UNL     1     -19.809 -27.105 -47.260  1.00  0.00     0.310 C 
HETATM    2  N   UNL     1     -19.525 -25.929 -48.084  1.00  0.00     0.093 N 
HETATM    3  C   UNL     1     -18.970 -26.345 -49.392  1.00  0.00     0.274 C 
HETATM    4  C   UNL     1     -18.810 -25.188 -50.408  1.00  0.00     0.052 C 
HETATM    5  C   UNL     1     -20.028 -24.242 -50.361  1.00  0.00     0.050 C 
HETATM    6  C   UNL     1     -20.551 -23.582 -51.640  1.00  0.00     0.203 C 
HETATM    7  C   UNL     1     -21.141 -24.672 -52.492  1.00  0.00     0.076 C 
HETATM    8  C   UNL     1     -21.966 -25.530 -51.849  1.00  0.00     0.035 C 
HETATM    9  C   UNL     1     -22.098 -25.515 -50.371  1.00  0.00     0.009 C 
HETATM   10  C   UNL     1     -21.123 -24.933 -49.633  1.00  0.00    -0.030 C 
HETATM   11  C   UNL     1     -20.732 -25.043 -48.175  1.00  0.00     0.257 C 
HETATM   12  C   UNL     1     -20.348 -23.646 -47.508  1.00  0.00     0.079 C 
HETATM   13  C   UNL     1     -19.719 -22.626 -48.435  1.00  0.00    -0.045 A 
HETATM   14  C   UNL     1     -19.629 -22.953 -49.768  1.00  0.00     0.001 A 
HETATM   15  C   UNL     1     -19.297 -22.068 -50.789  1.00  0.00     0.111 A 
HETATM   16  C   UNL     1     -18.943 -20.782 -50.476  1.00  0.00     0.099 A 
HETATM   17  C   UNL     1     -18.942 -20.412 -49.125  1.00  0.00     0.040 A 
HETATM   18  C   UNL     1     -19.341 -21.324 -48.108  1.00  0.00     0.011 A 
HETATM   19  O   UNL     1     -19.552 -22.617 -52.050  1.00  0.00    -0.334 OA
ENDROOT
BRANCH   7  20
HETATM   20  O   UNL     1     -20.938 -24.683 -53.852  1.00  0.00    -0.357 OA
HETATM   21  C   UNL     1     -19.806 -25.485 -54.191  1.00  0.00     0.209 C 
ENDBRANCH   7  20
BRANCH  16  22
HETATM   22  O   UNL     1     -18.678 -19.857 -51.435  1.00  0.00    -0.358 OA
HETATM   23  H   UNL     1     -19.103 -19.031 -51.138  1.00  0.00     0.217 HD
ENDBRANCH  16  22
TORSDOF 2
ENDMDL
MODEL 3
REMARK VINA RESULT:       0.0     26.125     28.700
REMARK  2 active torsions:
REMARK  status: ('A' for Active; 'I' for Inactive)
REMARK    1  A    between atoms: C_7  and  O_21 
REMARK    2  A    between atoms: C_16  and  O_19 
ROOT
HETATM    1  C   UNL     1       0.561  -9.967 -54.879  1.00  0.00     0.310 C 
HETATM    2  N   UNL     1      -0.553 -10.703 -55.479  1.00  0.00     0.093 N 
HETATM    3  C   UNL     1      -1.591 -10.977 -54.460  1.00  0.00     0.274 C 
HETATM    4  C   UNL     1      -2.895 -11.586 -55.031  1.00  0.00     0.052 C 
HETATM    5  C   UNL     1      -3.287 -10.900 -56.356  1.00  0.00     0.050 C 
HETATM    6  C   UNL     1      -4.759 -10.669 -56.708  1.00  0.00     0.203 C 
HETATM    7  C   UNL     1      -5.287  -9.636 -55.750  1.00  0.00     0.076 C 
HETATM    8  C   UNL     1      -4.505  -8.544 -55.585  1.00  0.00     0.035 C 
HETATM    9  C   UNL     1      -3.133  -8.484 -56.145  1.00  0.00     0.009 C 
HETATM   10  C   UNL     1      -2.508  -9.640 -56.474  1.00  0.00    -0.030 C 
HETATM   11  C   UNL     1      -1.055  -9.996 -56.703  1.00  0.00     0.257 C 
HETATM   12  C   UNL     1      -0.823 -10.971 -57.944  1.00  0.00     0.079 C 
HETATM   13  C   UNL     1      -1.946 -11.946 -58.233  1.00  0.00    -0.045 A 
HETATM   14  C   UNL     1      -3.089 -11.838 -57.475  1.00  0.00     0.001 A 
HETATM   15  C   UNL     1      -4.291 -12.485 -57.744  1.00  0.00     0.111 A 
HETATM   16  C   UNL     1      -4.360 -13.371 -58.786  1.00  0.00     0.099 A 
HETATM   17  C   UNL     1      -3.204 -13.580 -59.548  1.00  0.00     0.040 A 
HETATM   18  C   UNL     1      -2.004 -12.862 -59.284  1.00  0.00     0.011 A 
HETATM   19  O   UNL     1      -5.336 -11.972 -56.967  1.00  0.00    -0.334 OA
ENDROOT
BRANCH   7  20
HETATM   20  O   UNL     1      -6.542  -9.766 -55.203  1.00  0.00    -0.357 OA
HETATM   21  C   UNL     1      -6.479 -10.426 -53.938  1.00  0.00     0.209 C 
ENDBRANCH   7  20
BRANCH  16  22
HETATM   22  O   UNL     1      -5.525 -13.976 -59.137  1.00  0.00    -0.358 OA
HETATM   23  H   UNL     1      -5.366 -14.382 -60.010  1.00  0.00     0.217 HD
ENDBRANCH  16  22
TORSDOF 2
ENDMDL
MODEL 4
REMARK VINA RESULT:       0.0     14.500     16.570
REMARK  2 active torsions:
REMARK  status: ('A' for Active; 'I' for Inactive)
REMARK    1  A    between atoms: C_7  and  O_21 
REMARK    2  A    between atoms: C_16  and  O_19 
ROOT
HETATM    1  C   UNL     1     -13.323 -14.668 -45.921  1.00  0.00     0.310 C 
HETATM    2  N   UNL     1     -12.946 -13.306 -46.303  1.00  0.00     0.093 N 
HETATM    3  C   UNL     1     -12.892 -13.186 -47.777  1.00  0.00     0.274 C 
HETATM    4  C   UNL     1     -12.686 -11.739 -48.288  1.00  0.00     0.052 C 
HETATM    5  C   UNL     1     -13.535 -10.742 -47.471  1.00  0.00     0.050 C 
HETATM    6  C   UNL     1     -14.168  -9.523 -48.146  1.00  0.00     0.203 C 
HETATM    7  C   UNL     1     -15.241 -10.033 -49.069  1.00  0.00     0.076 C 
HETATM    8  C   UNL     1     -16.075 -10.956 -48.535  1.00  0.00     0.035 C 
HETATM    9  C   UNL     1     -15.806 -11.567 -47.210  1.00  0.00     0.009 C 
HETATM   10  C   UNL     1     -14.549 -11.514 -46.707  1.00  0.00    -0.030 C 
HETATM   11  C   UNL     1     -13.837 -12.304 -45.630  1.00  0.00     0.257 C 
HETATM   12  C   UNL     1     -12.917 -11.409 -44.684  1.00  0.00     0.079 C 
HETATM   13  C   UNL     1     -12.293 -10.191 -45.333  1.00  0.00    -0.045 A 
HETATM   14  C   UNL     1     -12.650  -9.914 -46.633  1.00  0.00     0.001 A 
HETATM   15  C   UNL     1     -12.363  -8.731 -47.307  1.00  0.00     0.111 A 
HETATM   16  C   UNL     1     -11.594  -7.777 -46.694  1.00  0.00     0.099 A 
HETATM   17  C   UNL     1     -11.136  -8.037 -45.396  1.00  0.00     0.040 A 
HETATM   18  C   UNL     1     -11.494  -9.232 -44.711  1.00  0.00     0.011 A 
HETATM   19  O   UNL     1     -13.082  -8.632 -48.502  1.00  0.00    -0.334 OA
ENDROOT
BRANCH   7  20
HETATM   20  O   UNL     1     -15.412  -9.480 -50.316  1.00  0.00    -0.357 OA
HETATM   21  C   UNL     1     -14.680 -10.210 -51.301  1.00  0.00     0.209 C 
ENDBRANCH   7  20
BRANCH  16  22
HETATM   22  O   UNL     1     -11.342  -6.576 -47.277  1.00  0.00    -0.358 OA
HETATM   23  H   UNL     1     -12.202  -6.120 -47.337  1.00  0.00     0.217 HD
ENDBRANCH  16  22
TORSDOF 2
ENDMDL
MODEL 5
REMARK VINA RESULT:       0.0     18.696     20.422
REMARK  2 active torsions:
REMARK  status: ('A' for Active; 'I' for Inactive)
REMARK    1  A    between atoms: C_7  and  O_21 
REMARK    2  A    between atoms: C_16  and  O_19 
ROOT
HETATM    1  C   UNL     1       2.204 -13.743 -36.233  1.00  0.00     0.310 C 
HETATM    2  N   UNL     1       2.365 -12.595 -35.337  1.00  0.00     0.093 N 
HETATM    3  C   UNL     1       2.533 -13.059 -33.941  1.00  0.00     0.274 C 
HETATM    4  C   UNL     1       2.898 -11.934 -32.941  1.00  0.00     0.052 C 
HETATM    5  C   UNL     1       3.930 -10.966 -33.555  1.00  0.00     0.050 C 
HETATM    6  C   UNL     1       5.019 -10.334 -32.683  1.00  0.00     0.203 C 
HETATM    7  C   UNL     1       5.956 -11.437 -32.273  1.00  0.00     0.076 C 
HETATM    8  C   UNL     1       6.353 -12.262 -33.270  1.00  0.00     0.035 C 
HETATM    9  C   UNL     1       5.734 -12.201 -34.617  1.00  0.00     0.009 C 
HETATM   10  C   UNL     1       4.520 -11.616 -34.754  1.00  0.00    -0.030 C 
HETATM   11  C   UNL     1       3.456 -11.691 -35.828  1.00  0.00     0.257 C 
HETATM   12  C   UNL     1       2.790 -10.283 -36.168  1.00  0.00     0.079 C 
HETATM   13  C   UNL     1       2.704  -9.301 -35.017  1.00  0.00    -0.045 A 
HETATM   14  C   UNL     1       3.288  -9.668 -33.827  1.00  0.00     0.001 A 
HETATM   15  C   UNL     1       3.506  -8.819 -32.747  1.00  0.00     0.111 A 
HETATM   16  C   UNL     1       3.042  -7.531 -32.799  1.00  0.00     0.099 A 
HETATM   17  C   UNL     1       2.369  -7.122 -33.958  1.00  0.00     0.040 A 
HETATM   18  C   UNL     1       2.211  -7.997 -35.069  1.00  0.00     0.011 A 
HETATM   19  O   UNL     1       4.355  -9.399 -31.799  1.00  0.00    -0.334 OA
ENDROOT
BRANCH   7  20
HETATM   20  O   UNL     1       6.455 -11.491 -30.993  1.00  0.00    -0.357 OA
HETATM   21  C   UNL     1       5.643 -12.322 -30.165  1.00  0.00     0.209 C 
ENDBRANCH   7  20
BRANCH  16  22
HETATM   22  O   UNL     1       3.288  -6.639 -31.805  1.00  0.00    -0.358 OA
HETATM   23  H   UNL     1       2.673  -5.895 -31.952  1.00  0.00     0.217 HD
ENDBRANCH  16  22
TORSDOF 2
ENDMDL
MODEL 6
REMARK VINA RESULT:       0.0     29.133     31.621
REMARK  2 active torsions:
REMARK  status: ('A' for Active; 'I' for Inactive)
REMARK    1  A    between atoms: C_7  and  O_21 
REMARK    2  A    between atoms: C_16  and  O_19 
ROOT
HETATM    1  C   UNL     1       1.917 -17.064 -52.180  1.00  0.00     0.310 C 
HETATM    2  N   UNL     1       2.367 -16.505 -53.456  1.00  0.00     0.093 N 
HETATM    3  C   UNL     1       1.411 -16.855 -54.531  1.00  0.00     0.274 C 
HETATM    4  C   UNL     1       1.695 -16.156 -55.883  1.00  0.00     0.052 C 
HETATM    5  C   UNL     1       2.097 -14.682 -55.667  1.00  0.00     0.050 C 
HETATM    6  C   UNL     1       1.666 -13.603 -56.664  1.00  0.00     0.203 C 
HETATM    7  C   UNL     1       0.174 -13.454 -56.540  1.00  0.00     0.076 C 
HETATM    8  C   UNL     1      -0.297 -13.360 -55.274  1.00  0.00     0.035 C 
HETATM    9  C   UNL     1       0.580 -13.605 -54.103  1.00  0.00     0.009 C 
HETATM   10  C   UNL     1       1.729 -14.301 -54.279  1.00  0.00    -0.030 C 
HETATM   11  C   UNL     1       2.643 -15.037 -53.323  1.00  0.00     0.257 C 
HETATM   12  C   UNL     1       4.194 -14.816 -53.622  1.00  0.00     0.079 C 
HETATM   13  C   UNL     1       4.558 -14.596 -55.076  1.00  0.00    -0.045 A 
HETATM   14  C   UNL     1       3.526 -14.509 -55.981  1.00  0.00     0.001 A 
HETATM   15  C   UNL     1       3.652 -14.089 -57.302  1.00  0.00     0.111 A 
HETATM   16  C   UNL     1       4.897 -13.811 -57.803  1.00  0.00     0.099 A 
HETATM   17  C   UNL     1       5.997 -13.957 -56.948  1.00  0.00     0.040 A 
HETATM   18  C   UNL     1       5.830 -14.335 -55.586  1.00  0.00     0.011 A 
HETATM   19  O   UNL     1       2.405 -13.845 -57.886  1.00  0.00    -0.334 OA
ENDROOT
BRANCH   7  20
HETATM   20  O   UNL     1      -0.609 -13.295 -57.659  1.00  0.00    -0.357 OA
HETATM   21  C   UNL     1      -1.105 -14.553 -58.115  1.00  0.00     0.209 C 
ENDBRANCH   7  20
BRANCH  16  22
HETATM   22  O   UNL     1       5.071 -13.331 -59.061  1.00  0.00    -0.358 OA
HETATM   23  H   UNL     1       4.857 -12.380 -59.019  1.00  0.00     0.217 HD
ENDBRANCH  16  22
TORSDOF 2
ENDMDL
MODEL 7
REMARK VINA RESULT:       0.0     30.081     32.952
REMARK  2 active torsions:
REMARK  status: ('A' for Active; 'I' for Inactive)
REMARK    1  A    between atoms: C_7  and  O_21 
REMARK    2  A    between atoms: C_16  and  O_19 
ROOT
HETATM    1  C   UNL     1       2.388 -22.162 -55.256  1.00  0.00     0.310 C 
HETATM    2  N   UNL     1       0.946 -22.408 -55.180  1.00  0.00     0.093 N 
HETATM    3  C   UNL     1       0.301 -22.059 -56.466  1.00  0.00     0.274 C 
HETATM    4  C   UNL     1      -1.193 -22.458 -56.553  1.00  0.00     0.052 C 
HETATM    5  C   UNL     1      -1.427 -23.851 -55.933  1.00  0.00     0.050 C 
HETATM    6  C   UNL     1      -2.463 -24.806 -56.532  1.00  0.00     0.203 C 
HETATM    7  C   UNL     1      -1.942 -25.239 -57.875  1.00  0.00     0.076 C 
HETATM    8  C   UNL     1      -0.646 -25.627 -57.898  1.00  0.00     0.035 C 
HETATM    9  C   UNL     1       0.241 -25.430 -56.725  1.00  0.00     0.009 C 
HETATM   10  C   UNL     1      -0.109 -24.520 -55.785  1.00  0.00    -0.030 C 
HETATM   11  C   UNL     1       0.672 -23.803 -54.705  1.00  0.00     0.257 C 
HETATM   12  C   UNL     1      -0.109 -23.690 -53.319  1.00  0.00     0.079 C 
HETATM   13  C   UNL     1      -1.617 -23.592 -53.420  1.00  0.00    -0.045 A 
HETATM   14  C   UNL     1      -2.176 -23.709 -54.672  1.00  0.00     0.001 A 
HETATM   15  C   UNL     1      -3.534 -23.871 -54.930  1.00  0.00     0.111 A 
HETATM   16  C   UNL     1      -4.426 -23.833 -53.890  1.00  0.00     0.099 A 
HETATM   17  C   UNL     1      -3.920 -23.638 -52.598  1.00  0.00     0.040 A 
HETATM   18  C   UNL     1      -2.521 -23.532 -52.360  1.00  0.00     0.011 A 
HETATM   19  O   UNL     1      -3.765 -24.233 -56.261  1.00  0.00    -0.334 OA
ENDROOT
BRANCH   7  20
HETATM   20  O   UNL     1      -2.789 -25.345 -58.953  1.00  0.00    -0.357 OA
HETATM   21  C   UNL     1      -2.797 -24.137 -59.715  1.00  0.00     0.209 C 
ENDBRANCH   7  20
BRANCH  16  22
HETATM   22  O   UNL     1      -5.752 -24.055 -54.076  1.00  0.00    -0.358 OA
HETATM   23  H   UNL     1      -5.817 -24.738 -54.770  1.00  0.00     0.217 HD
ENDBRANCH  16  22
TORSDOF 2
ENDMDL
MODEL 8
REMARK VINA RESULT:       0.0     26.478     29.095
REMARK  2 active torsions:
REMARK  status: ('A' for Active; 'I' for Inactive)
REMARK    1  A    between atoms: C_7  and  O_21 
REMARK    2  A    between atoms: C_16  and  O_19 
ROOT
HETATM    1  C   UNL     1       3.499  -6.311 -51.786  1.00  0.00     0.310 C 
HETATM    2  N   UNL     1       3.219  -7.738 -51.956  1.00  0.00     0.093 N 
HETATM    3  C   UNL     1       3.310  -8.108 -53.386  1.00  0.00     0.274 C 
HETATM    4  C   UNL     1       3.215  -9.631 -53.653  1.00  0.00     0.052 C 
HETATM    5  C   UNL     1       4.022 -10.424 -52.604  1.00  0.00     0.050 C 
HETATM    6  C   UNL     1       4.768 -11.702 -52.999  1.00  0.00     0.203 C 
HETATM    7  C   UNL     1       5.901 -11.294 -53.899  1.00  0.00     0.076 C 
HETATM    8  C   UNL     1       6.641 -10.248 -53.465  1.00  0.00     0.035 C 
HETATM    9  C   UNL     1       6.222  -9.437 -52.294  1.00  0.00     0.009 C 
HETATM   10  C   UNL     1       4.926  -9.477 -51.901  1.00  0.00    -0.030 C 
HETATM   11  C   UNL     1       4.082  -8.558 -51.044  1.00  0.00     0.257 C 
HETATM   12  C   UNL     1       3.114  -9.331 -50.040  1.00  0.00     0.079 C 
HETATM   13  C   UNL     1       2.607 -10.676 -50.519  1.00  0.00    -0.045 A 
HETATM   14  C   UNL     1       3.098 -11.148 -51.714  1.00  0.00     0.001 A 
HETATM   15  C   UNL     1       2.926 -12.442 -52.194  1.00  0.00     0.111 A 
HETATM   16  C   UNL     1       2.143 -13.322 -51.494  1.00  0.00     0.099 A 
HETATM   17  C   UNL     1       1.552 -12.872 -50.306  1.00  0.00     0.040 A 
HETATM   18  C   UNL     1       1.792 -11.559 -49.811  1.00  0.00     0.011 A 
HETATM   19  O   UNL     1       3.760 -12.701 -53.287  1.00  0.00    -0.334 OA
ENDROOT
BRANCH   7  20
HETATM   20  O   UNL     1       6.214 -12.040 -55.012  1.00  0.00    -0.357 OA
HETATM   21  C   UNL     1       5.550 -11.531 -56.168  1.00  0.00     0.209 C 
ENDBRANCH   7  20
BRANCH  16  22
HETATM   22  O   UNL     1       1.998 -14.616 -51.879  1.00  0.00    -0.358 OA
HETATM   23  H   UNL     1       2.722 -14.793 -52.508  1.00  0.00     0.217 HD
ENDBRANCH  16  22
TORSDOF 2
ENDMDL
MODEL 9
REMARK VINA RESULT:       0.0     17.269     19.386
REMARK  2 active torsions:
REMARK  status: ('A' for Active; 'I' for Inactive)
REMARK    1  A    between atoms: C_7  and  O_21 
REMARK    2  A    between atoms: C_16  and  O_19 
ROOT
HETATM    1  C   UNL     1      -8.751 -21.663 -48.124  1.00  0.00     0.310 C 
HETATM    2  N   UNL     1      -9.451 -20.518 -47.538  1.00  0.00     0.093 N 
HETATM    3  C   UNL     1     -10.757 -20.948 -46.987  1.00  0.00     0.274 C 
HETATM    4  C   UNL     1     -11.494 -19.852 -46.179  1.00  0.00     0.052 C 
HETATM    5  C   UNL     1     -10.508 -19.069 -45.286  1.00  0.00     0.050 C 
HETATM    6  C   UNL     1     -10.936 -18.571 -43.904  1.00  0.00     0.203 C 
HETATM    7  C   UNL     1     -11.121 -19.783 -43.033  1.00  0.00     0.076 C 
HETATM    8  C   UNL     1     -10.122 -20.695 -43.087  1.00  0.00     0.035 C 
HETATM    9  C   UNL     1      -9.039 -20.596 -44.096  1.00  0.00     0.009 C 
HETATM   10  C   UNL     1      -9.243 -19.845 -45.204  1.00  0.00    -0.030 C 
HETATM   11  C   UNL     1      -8.568 -19.804 -46.559  1.00  0.00     0.257 C 
HETATM   12  C   UNL     1      -8.339 -18.327 -47.115  1.00  0.00     0.079 C 
HETATM   13  C   UNL     1      -9.372 -17.300 -46.699  1.00  0.00    -0.045 A 
HETATM   14  C   UNL     1     -10.344 -17.703 -45.812  1.00  0.00     0.001 A 
HETATM   15  C   UNL     1     -11.226 -16.854 -45.151  1.00  0.00     0.111 A 
HETATM   16  C   UNL     1     -11.215 -15.515 -45.440  1.00  0.00     0.099 A 
HETATM   17  C   UNL     1     -10.297 -15.056 -46.394  1.00  0.00     0.040 A 
HETATM   18  C   UNL     1      -9.369 -15.941 -47.012  1.00  0.00     0.011 A 
HETATM   19  O   UNL     1     -11.904 -17.516 -44.122  1.00  0.00    -0.334 OA
ENDROOT
BRANCH   7  20
HETATM   20  O   UNL     1     -12.178 -19.861 -42.157  1.00  0.00    -0.357 OA
HETATM   21  C   UNL     1     -13.287 -20.532 -42.757  1.00  0.00     0.209 C 
ENDBRANCH   7  20
BRANCH  16  22
HETATM   22  O   UNL     1     -12.004 -14.631 -44.775  1.00  0.00    -0.358 OA
HETATM   23  H   UNL     1     -11.563 -14.468 -43.920  1.00  0.00     0.217 HD
ENDBRANCH  16  22
TORSDOF 2
ENDMDL
MODEL 10
REMARK VINA RESULT:       0.0     27.860     30.466
REMARK  2 active torsions:
REMARK  status: ('A' for Active; 'I' for Inactive)
REMARK    1  A    between atoms: C_7  and  O_21 
REMARK    2  A    between atoms: C_16  and  O_19 
ROOT
HETATM    1  C   UNL     1     -12.774 -31.369 -44.760  1.00  0.00     0.310 C 
HETATM    2  N   UNL     1     -11.912 -31.643 -45.912  1.00  0.00     0.093 N 
HETATM    3  C   UNL     1     -12.249 -30.730 -47.028  1.00  0.00     0.274 C 
HETATM    4  C   UNL     1     -11.273 -30.810 -48.228  1.00  0.00     0.052 C 
HETATM    5  C   UNL     1      -9.812 -30.918 -47.742  1.00  0.00     0.050 C 
HETATM    6  C   UNL     1      -8.681 -30.238 -48.518  1.00  0.00     0.203 C 
HETATM    7  C   UNL     1      -8.866 -28.754 -48.360  1.00  0.00     0.076 C 
HETATM    8  C   UNL     1      -9.101 -28.328 -47.097  1.00  0.00     0.035 C 
HETATM    9  C   UNL     1      -9.370 -29.286 -45.996  1.00  0.00     0.009 C 
HETATM   10  C   UNL     1      -9.773 -30.542 -46.305  1.00  0.00    -0.030 C 
HETATM   11  C   UNL     1     -10.468 -31.625 -45.509  1.00  0.00     0.257 C 
HETATM   12  C   UNL     1      -9.884 -33.086 -45.769  1.00  0.00     0.079 C 
HETATM   13  C   UNL     1      -9.334 -33.336 -47.159  1.00  0.00    -0.045 A 
HETATM   14  C   UNL     1      -9.297 -32.269 -48.026  1.00  0.00     0.001 A 
HETATM   15  C   UNL     1      -8.627 -32.252 -49.245  1.00  0.00     0.111 A 
HETATM   16  C   UNL     1      -8.014 -33.393 -49.693  1.00  0.00     0.099 A 
HETATM   17  C   UNL     1      -8.085 -34.536 -48.886  1.00  0.00     0.040 A 
HETATM   18  C   UNL     1      -8.730 -34.507 -47.617  1.00  0.00     0.011 A 
HETATM   19  O   UNL     1      -8.541 -30.957 -49.767  1.00  0.00    -0.334 OA
ENDROOT
BRANCH   7  20
HETATM   20  O   UNL     1      -8.669 -27.907 -49.426  1.00  0.00    -0.357 OA
HETATM   21  C   UNL     1      -9.898 -27.653 -50.107  1.00  0.00     0.209 C 
ENDBRANCH   7  20
BRANCH  16  22
HETATM   22  O   UNL     1      -7.288 -33.414 -50.840  1.00  0.00    -0.358 OA
HETATM   23  H   UNL     1      -6.516 -32.839 -50.680  1.00  0.00     0.217 HD
ENDBRANCH  16  22
TORSDOF 2
ENDMDL
