MODEL 1
REMARK VINA RESULT:      -8.9      0.000      0.000
REMARK  5 active torsions:
REMARK  status: ('A' for Active; 'I' for Inactive)
REMARK    1  A    between atoms: C_11  and  C_22 
REMARK    2  A    between atoms: C_12  and  O_21 
REMARK    3  A    between atoms: C_17  and  O_20 
REMARK    4  A    between atoms: C_23  and  O_42 
REMARK    5  A    between atoms: C_38  and  O_41 
ROOT
HETATM    1  C   UNL     1     -13.528  27.062 -61.091  1.00  0.00     0.310 C 
HETATM    2  N   UNL     1     -14.076  25.732 -60.809  1.00  0.00     0.089 N 
HETATM    3  C   UNL     1     -15.165  25.821 -59.830  1.00  0.00     0.273 C 
HETATM    4  C   UNL     1     -15.987  24.531 -59.713  1.00  0.00     0.048 C 
HETATM    5  C   UNL     1     -16.399  23.971 -61.101  1.00  0.00     0.030 C 
HETATM    6  C   UNL     1     -15.965  24.844 -62.267  1.00  0.00     0.057 C 
HETATM    7  C   UNL     1     -14.429  25.014 -62.062  1.00  0.00     0.235 C 
HETATM    8  C   UNL     1     -13.700  23.577 -62.082  1.00  0.00     0.075 C 
HETATM    9  C   UNL     1     -14.562  22.379 -61.728  1.00  0.00    -0.045 A 
HETATM   10  C   UNL     1     -14.271  21.031 -61.960  1.00  0.00     0.023 A 
HETATM   11  C   UNL     1     -15.251  19.997 -61.750  1.00  0.00     0.013 A 
HETATM   12  C   UNL     1     -16.515  20.348 -61.208  1.00  0.00     0.111 A 
HETATM   13  C   UNL     1     -16.787  21.676 -60.966  1.00  0.00     0.111 A 
HETATM   14  C   UNL     1     -15.821  22.627 -61.239  1.00  0.00    -0.003 A 
HETATM   15  O   UNL     1     -18.008  22.268 -60.634  1.00  0.00    -0.338 OA
HETATM   16  C   UNL     1     -17.849  23.546 -61.321  1.00  0.00     0.175 C 
HETATM   17  C   UNL     1     -18.742  24.761 -61.025  1.00  0.00     0.171 C 
HETATM   18  C   UNL     1     -18.162  25.985 -61.748  1.00  0.00     0.004 C 
HETATM   19  C   UNL     1     -16.932  26.027 -62.321  1.00  0.00    -0.020 C 
ENDROOT
BRANCH  11  20
HETATM   20  C   UNL     1     -15.008  18.641 -62.314  1.00  0.00     0.013 A 
HETATM   21  C   UNL     1     -14.665  17.577 -61.434  1.00  0.00     0.111 A 
HETATM   22  C   UNL     1     -14.297  16.367 -61.964  1.00  0.00     0.111 A 
HETATM   23  C   UNL     1     -14.287  16.206 -63.334  1.00  0.00    -0.003 A 
HETATM   24  O   UNL     1     -13.787  15.250 -61.303  1.00  0.00    -0.338 OA
HETATM   25  C   UNL     1     -14.616  17.159 -64.267  1.00  0.00    -0.045 A 
HETATM   26  C   UNL     1     -13.758  14.875 -63.659  1.00  0.00     0.030 C 
HETATM   27  C   UNL     1     -14.991  18.403 -63.735  1.00  0.00     0.023 A 
HETATM   28  C   UNL     1     -14.443  16.774 -65.729  1.00  0.00     0.065 C 
HETATM   29  C   UNL     1     -13.710  15.358 -66.027  1.00  0.00     0.091 C 
HETATM   30  C   UNL     1     -12.794  14.972 -64.828  1.00  0.00     0.046 C 
HETATM   31  N   UNL     1     -14.572  14.216 -66.377  1.00  0.00    -0.411 N 
HETATM   32  C   UNL     1     -11.951  13.694 -64.808  1.00  0.00    -0.020 C 
HETATM   33  C   UNL     1     -11.812  12.929 -63.699  1.00  0.00     0.004 C 
HETATM   34  C   UNL     1     -12.432  13.258 -62.333  1.00  0.00     0.171 C 
HETATM   35  C   UNL     1     -12.959  14.701 -62.368  1.00  0.00     0.175 C 
HETATM   36  C   UNL     1     -14.994  13.326 -65.301  1.00  0.00     0.118 C 
HETATM   37  C   UNL     1     -15.555  14.414 -67.421  1.00  0.00     0.143 C 
HETATM   38  C   UNL     1     -14.979  13.948 -63.903  1.00  0.00     0.037 C 
BRANCH  21  39
HETATM   39  O   UNL     1     -14.597  17.754 -60.081  1.00  0.00    -0.357 OA
HETATM   40  H   UNL     1     -14.704  18.712 -59.930  1.00  0.00     0.217 HD
ENDBRANCH  21  39
BRANCH  34  41
HETATM   41  O   UNL     1     -11.435  13.112 -61.324  1.00  0.00    -0.389 OA
HETATM   42  H   UNL     1     -11.651  12.330 -60.790  1.00  0.00     0.210 HD
ENDBRANCH  34  41
ENDBRANCH  11  20
BRANCH  12  43
HETATM   43  O   UNL     1     -17.508  19.422 -61.046  1.00  0.00    -0.357 OA
HETATM   44  H   UNL     1     -17.058  18.557 -60.996  1.00  0.00     0.217 HD
ENDBRANCH  12  43
BRANCH  17  45
HETATM   45  O   UNL     1     -20.056  24.540 -61.525  1.00  0.00    -0.389 OA
HETATM   46  H   UNL     1     -20.284  23.616 -61.331  1.00  0.00     0.210 HD
ENDBRANCH  17  45
TORSDOF 5
ENDMDL
MODEL 2
REMARK VINA RESULT:      -8.0     28.633     33.509
REMARK  5 active torsions:
REMARK  status: ('A' for Active; 'I' for Inactive)
REMARK    1  A    between atoms: C_11  and  C_22 
REMARK    2  A    between atoms: C_12  and  O_21 
REMARK    3  A    between atoms: C_17  and  O_20 
REMARK    4  A    between atoms: C_23  and  O_42 
REMARK    5  A    between atoms: C_38  and  O_41 
ROOT
HETATM    1  C   UNL     1      18.574   5.978 -50.305  1.00  0.00     0.310 C 
HETATM    2  N   UNL     1      17.617   5.020 -50.865  1.00  0.00     0.089 N 
HETATM    3  C   UNL     1      17.338   3.948 -49.902  1.00  0.00     0.273 C 
HETATM    4  C   UNL     1      16.129   3.085 -50.286  1.00  0.00     0.048 C 
HETATM    5  C   UNL     1      14.899   3.942 -50.686  1.00  0.00     0.030 C 
HETATM    6  C   UNL     1      15.126   5.439 -50.550  1.00  0.00     0.057 C 
HETATM    7  C   UNL     1      16.409   5.705 -51.394  1.00  0.00     0.235 C 
HETATM    8  C   UNL     1      16.171   5.269 -52.927  1.00  0.00     0.075 C 
HETATM    9  C   UNL     1      15.091   4.230 -53.172  1.00  0.00    -0.045 A 
HETATM   10  C   UNL     1      14.488   3.911 -54.392  1.00  0.00     0.023 A 
HETATM   11  C   UNL     1      13.343   3.040 -54.467  1.00  0.00     0.013 A 
HETATM   12  C   UNL     1      12.873   2.420 -53.280  1.00  0.00     0.111 A 
HETATM   13  C   UNL     1      13.484   2.728 -52.085  1.00  0.00     0.111 A 
HETATM   14  C   UNL     1      14.546   3.612 -52.074  1.00  0.00    -0.003 A 
HETATM   15  O   UNL     1      13.073   2.405 -50.789  1.00  0.00    -0.338 OA
HETATM   16  C   UNL     1      13.537   3.598 -50.087  1.00  0.00     0.175 C 
HETATM   17  C   UNL     1      13.670   3.659 -48.558  1.00  0.00     0.171 C 
HETATM   18  C   UNL     1      14.390   4.961 -48.178  1.00  0.00     0.004 C 
HETATM   19  C   UNL     1      15.026   5.772 -49.061  1.00  0.00    -0.020 C 
ENDROOT
BRANCH  11  20
HETATM   20  C   UNL     1      12.547   2.994 -55.724  1.00  0.00     0.013 A 
HETATM   21  C   UNL     1      13.143   2.461 -56.901  1.00  0.00     0.111 A 
HETATM   22  C   UNL     1      12.467   2.554 -58.090  1.00  0.00     0.111 A 
HETATM   23  C   UNL     1      11.219   3.142 -58.113  1.00  0.00    -0.003 A 
HETATM   24  O   UNL     1      12.917   2.237 -59.371  1.00  0.00    -0.338 OA
HETATM   25  C   UNL     1      10.550   3.670 -57.034  1.00  0.00    -0.045 A 
HETATM   26  C   UNL     1      10.749   3.223 -59.502  1.00  0.00     0.030 C 
HETATM   27  C   UNL     1      11.235   3.583 -55.812  1.00  0.00     0.023 A 
HETATM   28  C   UNL     1       9.218   4.348 -57.322  1.00  0.00     0.065 C 
HETATM   29  C   UNL     1       8.824   4.548 -58.882  1.00  0.00     0.091 C 
HETATM   30  C   UNL     1      10.114   4.578 -59.756  1.00  0.00     0.046 C 
HETATM   31  N   UNL     1       7.860   3.596 -59.459  1.00  0.00    -0.411 N 
HETATM   32  C   UNL     1      10.081   4.769 -61.274  1.00  0.00    -0.020 C 
HETATM   33  C   UNL     1      10.887   4.077 -62.114  1.00  0.00     0.004 C 
HETATM   34  C   UNL     1      11.949   3.064 -61.661  1.00  0.00     0.171 C 
HETATM   35  C   UNL     1      12.136   3.195 -60.141  1.00  0.00     0.175 C 
HETATM   36  C   UNL     1       8.389   2.423 -60.147  1.00  0.00     0.118 C 
HETATM   37  C   UNL     1       6.627   3.369 -58.735  1.00  0.00     0.143 C 
HETATM   38  C   UNL     1       9.804   2.012 -59.732  1.00  0.00     0.037 C 
BRANCH  21  39
HETATM   39  O   UNL     1      14.410   1.949 -56.899  1.00  0.00    -0.357 OA
HETATM   40  H   UNL     1      14.942   2.551 -57.454  1.00  0.00     0.217 HD
ENDBRANCH  21  39
BRANCH  34  41
HETATM   41  O   UNL     1      13.171   3.337 -62.343  1.00  0.00    -0.389 OA
HETATM   42  H   UNL     1      13.087   3.027 -63.260  1.00  0.00     0.210 HD
ENDBRANCH  34  41
ENDBRANCH  11  20
BRANCH  12  43
HETATM   43  O   UNL     1      11.753   1.636 -53.276  1.00  0.00    -0.357 OA
HETATM   44  H   UNL     1      11.703   1.240 -54.167  1.00  0.00     0.217 HD
ENDBRANCH  12  43
BRANCH  17  45
HETATM   45  O   UNL     1      12.381   3.680 -47.951  1.00  0.00    -0.389 OA
HETATM   46  H   UNL     1      12.053   4.592 -48.011  1.00  0.00     0.210 HD
ENDBRANCH  17  45
TORSDOF 5
ENDMDL
MODEL 3
REMARK VINA RESULT:      -7.9     32.026     34.252
REMARK  5 active torsions:
REMARK  status: ('A' for Active; 'I' for Inactive)
REMARK    1  A    between atoms: C_11  and  C_22 
REMARK    2  A    between atoms: C_12  and  O_21 
REMARK    3  A    between atoms: C_17  and  O_20 
REMARK    4  A    between atoms: C_23  and  O_42 
REMARK    5  A    between atoms: C_38  and  O_41 
ROOT
HETATM    1  C   UNL     1      17.073  22.001 -50.037  1.00  0.00     0.310 C 
HETATM    2  N   UNL     1      15.989  21.186 -49.483  1.00  0.00     0.089 N 
HETATM    3  C   UNL     1      15.061  20.774 -50.544  1.00  0.00     0.273 C 
HETATM    4  C   UNL     1      14.083  19.677 -50.104  1.00  0.00     0.048 C 
HETATM    5  C   UNL     1      14.799  18.512 -49.371  1.00  0.00     0.030 C 
HETATM    6  C   UNL     1      16.309  18.667 -49.303  1.00  0.00     0.057 C 
HETATM    7  C   UNL     1      16.517  20.070 -48.655  1.00  0.00     0.235 C 
HETATM    8  C   UNL     1      15.840  20.117 -47.194  1.00  0.00     0.075 C 
HETATM    9  C   UNL     1      14.716  19.128 -46.939  1.00  0.00    -0.045 A 
HETATM   10  C   UNL     1      14.182  18.757 -45.702  1.00  0.00     0.023 A 
HETATM   11  C   UNL     1      13.247  17.670 -45.574  1.00  0.00     0.013 A 
HETATM   12  C   UNL     1      12.788  17.017 -46.749  1.00  0.00     0.111 A 
HETATM   13  C   UNL     1      13.308  17.400 -47.966  1.00  0.00     0.111 A 
HETATM   14  C   UNL     1      14.242  18.417 -48.015  1.00  0.00    -0.003 A 
HETATM   15  O   UNL     1      13.163  16.778 -49.208  1.00  0.00    -0.338 OA
HETATM   16  C   UNL     1      14.473  17.077 -49.779  1.00  0.00     0.175 C 
HETATM   17  C   UNL     1      14.773  16.938 -51.280  1.00  0.00     0.171 C 
HETATM   18  C   UNL     1      16.156  17.541 -51.562  1.00  0.00     0.004 C 
HETATM   19  C   UNL     1      16.858  18.299 -50.682  1.00  0.00    -0.020 C 
ENDROOT
BRANCH  11  20
HETATM   20  C   UNL     1      12.965  17.108 -44.225  1.00  0.00     0.013 A 
HETATM   21  C   UNL     1      13.801  16.075 -43.718  1.00  0.00     0.111 A 
HETATM   22  C   UNL     1      13.455  15.455 -42.545  1.00  0.00     0.111 A 
HETATM   23  C   UNL     1      12.318  15.861 -41.877  1.00  0.00    -0.003 A 
HETATM   24  O   UNL     1      14.038  14.337 -41.950  1.00  0.00    -0.338 OA
HETATM   25  C   UNL     1      11.456  16.856 -42.270  1.00  0.00    -0.045 A 
HETATM   26  C   UNL     1      12.100  14.984 -40.718  1.00  0.00     0.030 C 
HETATM   27  C   UNL     1      11.799  17.495 -43.472  1.00  0.00     0.023 A 
HETATM   28  C   UNL     1      10.216  17.065 -41.412  1.00  0.00     0.065 C 
HETATM   29  C   UNL     1       9.945  15.972 -40.245  1.00  0.00     0.091 C 
HETATM   30  C   UNL     1      10.629  14.622 -40.613  1.00  0.00     0.046 C 
HETATM   31  N   UNL     1      10.312  16.353 -38.870  1.00  0.00    -0.411 N 
HETATM   32  C   UNL     1      10.547  13.382 -39.719  1.00  0.00    -0.020 C 
HETATM   33  C   UNL     1      11.604  12.562 -39.509  1.00  0.00     0.004 C 
HETATM   34  C   UNL     1      12.985  12.740 -40.160  1.00  0.00     0.171 C 
HETATM   35  C   UNL     1      12.868  13.788 -41.278  1.00  0.00     0.175 C 
HETATM   36  C   UNL     1      11.633  15.966 -38.386  1.00  0.00     0.118 C 
HETATM   37  C   UNL     1       9.836  17.628 -38.378  1.00  0.00     0.143 C 
HETATM   38  C   UNL     1      12.677  15.719 -39.478  1.00  0.00     0.037 C 
BRANCH  21  39
HETATM   39  O   UNL     1      14.883  15.616 -44.414  1.00  0.00    -0.357 OA
HETATM   40  H   UNL     1      15.638  16.164 -44.127  1.00  0.00     0.217 HD
ENDBRANCH  21  39
BRANCH  34  41
HETATM   41  O   UNL     1      13.413  11.487 -40.687  1.00  0.00    -0.389 OA
HETATM   42  H   UNL     1      13.273  11.496 -41.649  1.00  0.00     0.210 HD
ENDBRANCH  34  41
ENDBRANCH  11  20
BRANCH  12  43
HETATM   43  O   UNL     1      11.952  15.937 -46.689  1.00  0.00    -0.357 OA
HETATM   44  H   UNL     1      11.981  15.531 -47.576  1.00  0.00     0.217 HD
ENDBRANCH  12  43
BRANCH  17  45
HETATM   45  O   UNL     1      14.812  15.563 -51.649  1.00  0.00    -0.389 OA
HETATM   46  H   UNL     1      13.949  15.181 -51.419  1.00  0.00     0.210 HD
ENDBRANCH  17  45
TORSDOF 5
ENDMDL
MODEL 4
REMARK VINA RESULT:      -7.9     32.039     34.297
REMARK  5 active torsions:
REMARK  status: ('A' for Active; 'I' for Inactive)
REMARK    1  A    between atoms: C_11  and  C_22 
REMARK    2  A    between atoms: C_12  and  O_21 
REMARK    3  A    between atoms: C_17  and  O_20 
REMARK    4  A    between atoms: C_23  and  O_42 
REMARK    5  A    between atoms: C_38  and  O_41 
ROOT
HETATM    1  C   UNL     1      17.099  22.317 -49.199  1.00  0.00     0.310 C 
HETATM    2  N   UNL     1      15.983  21.453 -48.801  1.00  0.00     0.089 N 
HETATM    3  C   UNL     1      15.075  21.233 -49.933  1.00  0.00     0.273 C 
HETATM    4  C   UNL     1      14.062  20.106 -49.689  1.00  0.00     0.048 C 
HETATM    5  C   UNL     1      14.735  18.823 -49.130  1.00  0.00     0.030 C 
HETATM    6  C   UNL     1      16.246  18.929 -49.007  1.00  0.00     0.057 C 
HETATM    7  C   UNL     1      16.467  20.209 -48.145  1.00  0.00     0.235 C 
HETATM    8  C   UNL     1      15.755  20.047 -46.709  1.00  0.00     0.075 C 
HETATM    9  C   UNL     1      14.605  19.059 -46.635  1.00  0.00    -0.045 A 
HETATM   10  C   UNL     1      14.032  18.515 -45.481  1.00  0.00     0.023 A 
HETATM   11  C   UNL     1      13.071  17.445 -45.544  1.00  0.00     0.013 A 
HETATM   12  C   UNL     1      12.628  16.992 -46.815  1.00  0.00     0.111 A 
HETATM   13  C   UNL     1      13.186  17.546 -47.946  1.00  0.00     0.111 A 
HETATM   14  C   UNL     1      14.143  18.535 -47.817  1.00  0.00    -0.003 A 
HETATM   15  O   UNL     1      13.059  17.127 -49.273  1.00  0.00    -0.338 OA
HETATM   16  C   UNL     1      14.389  17.477 -49.762  1.00  0.00     0.175 C 
HETATM   17  C   UNL     1      14.723  17.564 -51.260  1.00  0.00     0.171 C 
HETATM   18  C   UNL     1      16.126  18.170 -51.416  1.00  0.00     0.004 C 
HETATM   19  C   UNL     1      16.821  18.764 -50.414  1.00  0.00    -0.020 C 
ENDROOT
BRANCH  11  20
HETATM   20  C   UNL     1      12.744  16.688 -44.304  1.00  0.00     0.013 A 
HETATM   21  C   UNL     1      11.522  16.964 -43.629  1.00  0.00     0.111 A 
HETATM   22  C   UNL     1      11.289  16.378 -42.411  1.00  0.00     0.111 A 
HETATM   23  C   UNL     1      12.233  15.523 -41.881  1.00  0.00    -0.003 A 
HETATM   24  O   UNL     1      10.243  16.617 -41.520  1.00  0.00    -0.338 OA
HETATM   25  C   UNL     1      13.432  15.178 -42.458  1.00  0.00    -0.045 A 
HETATM   26  C   UNL     1      11.811  15.113 -40.536  1.00  0.00     0.030 C 
HETATM   27  C   UNL     1      13.683  15.775 -43.704  1.00  0.00     0.023 A 
HETATM   28  C   UNL     1      14.352  14.283 -41.640  1.00  0.00     0.065 C 
HETATM   29  C   UNL     1      13.909  13.991 -40.107  1.00  0.00     0.091 C 
HETATM   30  C   UNL     1      12.998  15.143 -39.589  1.00  0.00     0.046 C 
HETATM   31  N   UNL     1      13.272  12.694 -39.828  1.00  0.00    -0.411 N 
HETATM   32  C   UNL     1      12.425  15.172 -38.170  1.00  0.00    -0.020 C 
HETATM   33  C   UNL     1      11.159  15.570 -37.902  1.00  0.00     0.004 C 
HETATM   34  C   UNL     1      10.165  16.078 -38.958  1.00  0.00     0.171 C 
HETATM   35  C   UNL     1      10.928  16.330 -40.268  1.00  0.00     0.175 C 
HETATM   36  C   UNL     1      11.814  12.633 -39.848  1.00  0.00     0.118 C 
HETATM   37  C   UNL     1      13.935  11.503 -40.312  1.00  0.00     0.143 C 
HETATM   38  C   UNL     1      11.132  13.724 -40.677  1.00  0.00     0.037 C 
BRANCH  21  39
HETATM   39  O   UNL     1      10.620  17.869 -44.111  1.00  0.00    -0.357 OA
HETATM   40  H   UNL     1      10.891  18.055 -45.030  1.00  0.00     0.217 HD
ENDBRANCH  21  39
BRANCH  34  41
HETATM   41  O   UNL     1       9.562  17.281 -38.487  1.00  0.00    -0.389 OA
HETATM   42  H   UNL     1       8.726  17.053 -38.048  1.00  0.00     0.210 HD
ENDBRANCH  34  41
ENDBRANCH  11  20
BRANCH  12  43
HETATM   43  O   UNL     1      11.768  15.937 -46.941  1.00  0.00    -0.357 OA
HETATM   44  H   UNL     1      12.328  15.138 -46.938  1.00  0.00     0.217 HD
ENDBRANCH  12  43
BRANCH  17  45
HETATM   45  O   UNL     1      14.743  16.262 -51.837  1.00  0.00    -0.389 OA
HETATM   46  H   UNL     1      14.834  16.377 -52.797  1.00  0.00     0.210 HD
ENDBRANCH  17  45
TORSDOF 5
ENDMDL
MODEL 5
REMARK VINA RESULT:      -7.6      1.652      2.033
REMARK  5 active torsions:
REMARK  status: ('A' for Active; 'I' for Inactive)
REMARK    1  A    between atoms: C_11  and  C_22 
REMARK    2  A    between atoms: C_12  and  O_21 
REMARK    3  A    between atoms: C_17  and  O_20 
REMARK    4  A    between atoms: C_23  and  O_42 
REMARK    5  A    between atoms: C_38  and  O_41 
ROOT
HETATM    1  C   UNL     1     -14.077  27.356 -61.200  1.00  0.00     0.310 C 
HETATM    2  N   UNL     1     -14.845  26.108 -61.150  1.00  0.00     0.089 N 
HETATM    3  C   UNL     1     -16.281  26.393 -61.040  1.00  0.00     0.273 C 
HETATM    4  C   UNL     1     -17.165  25.165 -61.290  1.00  0.00     0.048 C 
HETATM    5  C   UNL     1     -16.748  24.391 -62.569  1.00  0.00     0.030 C 
HETATM    6  C   UNL     1     -15.607  25.043 -63.333  1.00  0.00     0.057 C 
HETATM    7  C   UNL     1     -14.479  25.200 -62.269  1.00  0.00     0.235 C 
HETATM    8  C   UNL     1     -14.062  23.760 -61.678  1.00  0.00     0.075 C 
HETATM    9  C   UNL     1     -15.109  22.664 -61.775  1.00  0.00    -0.045 A 
HETATM   10  C   UNL     1     -14.906  21.289 -61.626  1.00  0.00     0.023 A 
HETATM   11  C   UNL     1     -15.941  20.333 -61.926  1.00  0.00     0.013 A 
HETATM   12  C   UNL     1     -17.226  20.806 -62.297  1.00  0.00     0.111 A 
HETATM   13  C   UNL     1     -17.421  22.164 -62.426  1.00  0.00     0.111 A 
HETATM   14  C   UNL     1     -16.372  23.027 -62.173  1.00  0.00    -0.003 A 
HETATM   15  O   UNL     1     -18.519  22.838 -62.966  1.00  0.00    -0.338 OA
HETATM   16  C   UNL     1     -17.830  23.977 -63.564  1.00  0.00     0.175 C 
HETATM   17  C   UNL     1     -18.567  25.250 -64.008  1.00  0.00     0.171 C 
HETATM   18  C   UNL     1     -17.526  26.318 -64.376  1.00  0.00     0.004 C 
HETATM   19  C   UNL     1     -16.201  26.227 -64.096  1.00  0.00    -0.020 C 
ENDROOT
BRANCH  11  20
HETATM   20  C   UNL     1     -15.583  18.895 -62.067  1.00  0.00     0.013 A 
HETATM   21  C   UNL     1     -15.967  17.984 -61.045  1.00  0.00     0.111 A 
HETATM   22  C   UNL     1     -15.511  16.692 -61.099  1.00  0.00     0.111 A 
HETATM   23  C   UNL     1     -14.709  16.303 -62.152  1.00  0.00    -0.003 A 
HETATM   24  O   UNL     1     -15.640  15.685 -60.143  1.00  0.00    -0.338 OA
HETATM   25  C   UNL     1     -14.296  17.097 -63.195  1.00  0.00    -0.045 A 
HETATM   26  C   UNL     1     -14.263  14.921 -61.934  1.00  0.00     0.030 C 
HETATM   27  C   UNL     1     -14.754  18.423 -63.147  1.00  0.00     0.023 A 
HETATM   28  C   UNL     1     -13.338  16.467 -64.196  1.00  0.00     0.065 C 
HETATM   29  C   UNL     1     -12.756  14.999 -63.824  1.00  0.00     0.091 C 
HETATM   30  C   UNL     1     -12.790  14.792 -62.280  1.00  0.00     0.046 C 
HETATM   31  N   UNL     1     -13.376  13.843 -64.491  1.00  0.00    -0.411 N 
HETATM   32  C   UNL     1     -12.293  13.510 -61.606  1.00  0.00    -0.020 C 
HETATM   33  C   UNL     1     -12.938  12.937 -60.562  1.00  0.00     0.004 C 
HETATM   34  C   UNL     1     -14.201  13.509 -59.901  1.00  0.00     0.171 C 
HETATM   35  C   UNL     1     -14.418  14.941 -60.415  1.00  0.00     0.175 C 
HETATM   36  C   UNL     1     -14.462  13.158 -63.799  1.00  0.00     0.118 C 
HETATM   37  C   UNL     1     -13.511  13.893 -65.931  1.00  0.00     0.143 C 
HETATM   38  C   UNL     1     -15.204  14.004 -62.761  1.00  0.00     0.037 C 
BRANCH  21  39
HETATM   39  O   UNL     1     -16.696  18.382 -59.959  1.00  0.00    -0.357 OA
HETATM   40  H   UNL     1     -16.054  18.490 -59.232  1.00  0.00     0.217 HD
ENDBRANCH  21  39
BRANCH  34  41
HETATM   41  O   UNL     1     -14.028  13.503 -58.487  1.00  0.00    -0.389 OA
HETATM   42  H   UNL     1     -13.600  12.668 -58.234  1.00  0.00     0.210 HD
ENDBRANCH  34  41
ENDBRANCH  11  20
BRANCH  12  43
HETATM   43  O   UNL     1     -18.230  19.950 -62.657  1.00  0.00    -0.357 OA
HETATM   44  H   UNL     1     -18.319  19.321 -61.916  1.00  0.00     0.217 HD
ENDBRANCH  12  43
BRANCH  17  45
HETATM   45  O   UNL     1     -19.350  24.986 -65.168  1.00  0.00    -0.389 OA
HETATM   46  H   UNL     1     -18.806  24.443 -65.762  1.00  0.00     0.210 HD
ENDBRANCH  17  45
TORSDOF 5
ENDMDL
MODEL 6
REMARK VINA RESULT:      -7.5     31.083     33.451
REMARK  5 active torsions:
REMARK  status: ('A' for Active; 'I' for Inactive)
REMARK    1  A    between atoms: C_11  and  C_22 
REMARK    2  A    between atoms: C_12  and  O_21 
REMARK    3  A    between atoms: C_17  and  O_20 
REMARK    4  A    between atoms: C_23  and  O_42 
REMARK    5  A    between atoms: C_38  and  O_41 
ROOT
HETATM    1  C   UNL     1      16.021  22.285 -51.360  1.00  0.00     0.310 C 
HETATM    2  N   UNL     1      15.315  21.082 -50.910  1.00  0.00     0.089 N 
HETATM    3  C   UNL     1      15.377  20.035 -51.938  1.00  0.00     0.273 C 
HETATM    4  C   UNL     1      14.935  18.657 -51.429  1.00  0.00     0.048 C 
HETATM    5  C   UNL     1      15.603  18.288 -50.078  1.00  0.00     0.030 C 
HETATM    6  C   UNL     1      16.595  19.327 -49.582  1.00  0.00     0.057 C 
HETATM    7  C   UNL     1      15.776  20.654 -49.563  1.00  0.00     0.235 C 
HETATM    8  C   UNL     1      14.507  20.515 -48.580  1.00  0.00     0.075 C 
HETATM    9  C   UNL     1      14.006  19.104 -48.321  1.00  0.00    -0.045 A 
HETATM   10  C   UNL     1      13.146  18.688 -47.301  1.00  0.00     0.023 A 
HETATM   11  C   UNL     1      12.893  17.294 -47.045  1.00  0.00     0.013 A 
HETATM   12  C   UNL     1      13.462  16.322 -47.909  1.00  0.00     0.111 A 
HETATM   13  C   UNL     1      14.296  16.742 -48.922  1.00  0.00     0.111 A 
HETATM   14  C   UNL     1      14.540  18.093 -49.082  1.00  0.00    -0.003 A 
HETATM   15  O   UNL     1      15.115  15.972 -49.751  1.00  0.00    -0.338 OA
HETATM   16  C   UNL     1      16.227  16.903 -49.920  1.00  0.00     0.175 C 
HETATM   17  C   UNL     1      17.283  16.738 -51.023  1.00  0.00     0.171 C 
HETATM   18  C   UNL     1      18.162  17.997 -51.055  1.00  0.00     0.004 C 
HETATM   19  C   UNL     1      17.873  19.151 -50.401  1.00  0.00    -0.020 C 
ENDROOT
BRANCH  11  20
HETATM   20  C   UNL     1      12.244  16.896 -45.765  1.00  0.00     0.013 A 
HETATM   21  C   UNL     1      10.826  16.806 -45.708  1.00  0.00     0.111 A 
HETATM   22  C   UNL     1      10.221  16.586 -44.497  1.00  0.00     0.111 A 
HETATM   23  C   UNL     1      11.003  16.440 -43.370  1.00  0.00    -0.003 A 
HETATM   24  O   UNL     1       8.862  16.609 -44.190  1.00  0.00    -0.338 OA
HETATM   25  C   UNL     1      12.375  16.492 -43.319  1.00  0.00    -0.045 A 
HETATM   26  C   UNL     1      10.133  16.326 -42.191  1.00  0.00     0.030 C 
HETATM   27  C   UNL     1      13.004  16.720 -44.554  1.00  0.00     0.023 A 
HETATM   28  C   UNL     1      13.013  16.391 -41.942  1.00  0.00     0.065 C 
HETATM   29  C   UNL     1      12.008  16.426 -40.669  1.00  0.00     0.091 C 
HETATM   30  C   UNL     1      10.691  17.163 -41.054  1.00  0.00     0.046 C 
HETATM   31  N   UNL     1      11.686  15.139 -40.032  1.00  0.00    -0.411 N 
HETATM   32  C   UNL     1       9.543  17.377 -40.064  1.00  0.00    -0.020 C 
HETATM   33  C   UNL     1       8.242  17.245 -40.416  1.00  0.00     0.004 C 
HETATM   34  C   UNL     1       7.754  16.913 -41.835  1.00  0.00     0.171 C 
HETATM   35  C   UNL     1       8.938  17.053 -42.805  1.00  0.00     0.175 C 
HETATM   36  C   UNL     1      10.479  14.445 -40.469  1.00  0.00     0.118 C 
HETATM   37  C   UNL     1      12.789  14.271 -39.678  1.00  0.00     0.143 C 
HETATM   38  C   UNL     1       9.994  14.812 -41.874  1.00  0.00     0.037 C 
BRANCH  21  39
HETATM   39  O   UNL     1      10.044  17.028 -46.806  1.00  0.00    -0.357 OA
HETATM   40  H   UNL     1       9.690  17.932 -46.704  1.00  0.00     0.217 HD
ENDBRANCH  21  39
BRANCH  34  41
HETATM   41  O   UNL     1       6.706  17.812 -42.187  1.00  0.00    -0.389 OA
HETATM   42  H   UNL     1       5.889  17.301 -42.303  1.00  0.00     0.210 HD
ENDBRANCH  34  41
ENDBRANCH  11  20
BRANCH  12  43
HETATM   43  O   UNL     1      13.312  14.982 -47.679  1.00  0.00    -0.357 OA
HETATM   44  H   UNL     1      12.832  14.911 -46.833  1.00  0.00     0.217 HD
ENDBRANCH  12  43
BRANCH  17  45
HETATM   45  O   UNL     1      18.125  15.626 -50.737  1.00  0.00    -0.389 OA
HETATM   46  H   UNL     1      17.651  14.828 -51.023  1.00  0.00     0.210 HD
ENDBRANCH  17  45
TORSDOF 5
ENDMDL
MODEL 7
REMARK VINA RESULT:      -7.5     28.913     34.290
REMARK  5 active torsions:
REMARK  status: ('A' for Active; 'I' for Inactive)
REMARK    1  A    between atoms: C_11  and  C_22 
REMARK    2  A    between atoms: C_12  and  O_21 
REMARK    3  A    between atoms: C_17  and  O_20 
REMARK    4  A    between atoms: C_23  and  O_42 
REMARK    5  A    between atoms: C_38  and  O_41 
ROOT
HETATM    1  C   UNL     1       8.411   5.093 -61.050  1.00  0.00     0.310 C 
HETATM    2  N   UNL     1       9.040   4.190 -60.082  1.00  0.00     0.089 N 
HETATM    3  C   UNL     1       9.043   2.813 -60.589  1.00  0.00     0.273 C 
HETATM    4  C   UNL     1       9.948   1.870 -59.785  1.00  0.00     0.048 C 
HETATM    5  C   UNL     1      11.353   2.478 -59.534  1.00  0.00     0.030 C 
HETATM    6  C   UNL     1      11.559   3.834 -60.188  1.00  0.00     0.057 C 
HETATM    7  C   UNL     1      10.373   4.695 -59.657  1.00  0.00     0.235 C 
HETATM    8  C   UNL     1      10.424   4.787 -58.049  1.00  0.00     0.075 C 
HETATM    9  C   UNL     1      11.160   3.669 -57.333  1.00  0.00    -0.045 A 
HETATM   10  C   UNL     1      11.607   3.665 -56.008  1.00  0.00     0.023 A 
HETATM   11  C   UNL     1      12.458   2.622 -55.498  1.00  0.00     0.013 A 
HETATM   12  C   UNL     1      12.779   1.524 -56.339  1.00  0.00     0.111 A 
HETATM   13  C   UNL     1      12.321   1.528 -57.638  1.00  0.00     0.111 A 
HETATM   14  C   UNL     1      11.550   2.586 -58.082  1.00  0.00    -0.003 A 
HETATM   15  O   UNL     1      12.672   0.675 -58.687  1.00  0.00    -0.338 OA
HETATM   16  C   UNL     1      12.585   1.616 -59.800  1.00  0.00     0.175 C 
HETATM   17  C   UNL     1      12.529   1.160 -61.266  1.00  0.00     0.171 C 
HETATM   18  C   UNL     1      12.217   2.378 -62.148  1.00  0.00     0.004 C 
HETATM   19  C   UNL     1      11.801   3.580 -61.676  1.00  0.00    -0.020 C 
ENDROOT
BRANCH  11  20
HETATM   20  C   UNL     1      13.164   2.828 -54.204  1.00  0.00     0.013 A 
HETATM   21  C   UNL     1      12.594   2.297 -53.013  1.00  0.00     0.111 A 
HETATM   22  C   UNL     1      13.162   2.612 -51.806  1.00  0.00     0.111 A 
HETATM   23  C   UNL     1      14.281   3.418 -51.776  1.00  0.00    -0.003 A 
HETATM   24  O   UNL     1      12.690   2.327 -50.525  1.00  0.00    -0.338 OA
HETATM   25  C   UNL     1      14.917   3.966 -52.864  1.00  0.00    -0.045 A 
HETATM   26  C   UNL     1      14.636   3.700 -50.379  1.00  0.00     0.030 C 
HETATM   27  C   UNL     1      14.341   3.653 -54.106  1.00  0.00     0.023 A 
HETATM   28  C   UNL     1      16.085   4.898 -52.576  1.00  0.00     0.065 C 
HETATM   29  C   UNL     1      16.332   5.298 -51.023  1.00  0.00     0.091 C 
HETATM   30  C   UNL     1      15.001   5.165 -50.223  1.00  0.00     0.046 C 
HETATM   31  N   UNL     1      17.409   4.590 -50.311  1.00  0.00    -0.411 N 
HETATM   32  C   UNL     1      14.898   5.486 -48.730  1.00  0.00    -0.020 C 
HETATM   33  C   UNL     1      14.173   4.733 -47.870  1.00  0.00     0.004 C 
HETATM   34  C   UNL     1      13.340   3.507 -48.278  1.00  0.00     0.171 C 
HETATM   35  C   UNL     1      13.236   3.473 -49.811  1.00  0.00     0.175 C 
HETATM   36  C   UNL     1      17.051   3.403 -49.542  1.00  0.00     0.118 C 
HETATM   37  C   UNL     1      18.707   4.532 -50.946  1.00  0.00     0.143 C 
HETATM   38  C   UNL     1      15.763   2.707 -49.987  1.00  0.00     0.037 C 
BRANCH  21  39
HETATM   39  O   UNL     1      11.442   1.563 -53.030  1.00  0.00    -0.357 OA
HETATM   40  H   UNL     1      11.406   1.101 -52.171  1.00  0.00     0.217 HD
ENDBRANCH  21  39
BRANCH  34  41
HETATM   41  O   UNL     1      12.046   3.609 -47.688  1.00  0.00    -0.389 OA
HETATM   42  H   UNL     1      12.123   3.399 -46.743  1.00  0.00     0.210 HD
ENDBRANCH  34  41
ENDBRANCH  11  20
BRANCH  12  43
HETATM   43  O   UNL     1      13.634   0.537 -55.935  1.00  0.00    -0.357 OA
HETATM   44  H   UNL     1      14.215   0.360 -56.699  1.00  0.00     0.217 HD
ENDBRANCH  12  43
BRANCH  17  45
HETATM   45  O   UNL     1      13.793   0.642 -61.669  1.00  0.00    -0.389 OA
HETATM   46  H   UNL     1      13.618  -0.103 -62.268  1.00  0.00     0.210 HD
ENDBRANCH  17  45
TORSDOF 5
ENDMDL
MODEL 8
REMARK VINA RESULT:      -7.3     29.025     32.241
REMARK  5 active torsions:
REMARK  status: ('A' for Active; 'I' for Inactive)
REMARK    1  A    between atoms: C_11  and  C_22 
REMARK    2  A    between atoms: C_12  and  O_21 
REMARK    3  A    between atoms: C_17  and  O_20 
REMARK    4  A    between atoms: C_23  and  O_42 
REMARK    5  A    between atoms: C_38  and  O_41 
ROOT
HETATM    1  C   UNL     1      16.754   5.711 -59.794  1.00  0.00     0.310 C 
HETATM    2  N   UNL     1      15.351   5.294 -59.723  1.00  0.00     0.089 N 
HETATM    3  C   UNL     1      14.767   5.221 -61.068  1.00  0.00     0.273 C 
HETATM    4  C   UNL     1      13.412   4.504 -61.105  1.00  0.00     0.048 C 
HETATM    5  C   UNL     1      13.437   3.161 -60.328  1.00  0.00     0.030 C 
HETATM    6  C   UNL     1      14.801   2.809 -59.759  1.00  0.00     0.057 C 
HETATM    7  C   UNL     1      15.192   4.058 -58.912  1.00  0.00     0.235 C 
HETATM    8  C   UNL     1      14.103   4.313 -57.753  1.00  0.00     0.075 C 
HETATM    9  C   UNL     1      12.714   3.747 -57.997  1.00  0.00    -0.045 A 
HETATM   10  C   UNL     1      11.701   3.562 -57.053  1.00  0.00     0.023 A 
HETATM   11  C   UNL     1      10.493   2.843 -57.367  1.00  0.00     0.013 A 
HETATM   12  C   UNL     1      10.291   2.389 -58.697  1.00  0.00     0.111 A 
HETATM   13  C   UNL     1      11.289   2.590 -59.625  1.00  0.00     0.111 A 
HETATM   14  C   UNL     1      12.447   3.243 -59.246  1.00  0.00    -0.003 A 
HETATM   15  O   UNL     1      11.398   2.062 -60.914  1.00  0.00    -0.338 OA
HETATM   16  C   UNL     1      12.848   1.918 -60.991  1.00  0.00     0.175 C 
HETATM   17  C   UNL     1      13.589   1.702 -62.320  1.00  0.00     0.171 C 
HETATM   18  C   UNL     1      15.099   1.818 -62.066  1.00  0.00     0.004 C 
HETATM   19  C   UNL     1      15.650   2.293 -60.921  1.00  0.00    -0.020 C 
ENDROOT
BRANCH  11  20
HETATM   20  C   UNL     1       9.606   2.393 -56.260  1.00  0.00     0.013 A 
HETATM   21  C   UNL     1       8.476   3.185 -55.914  1.00  0.00     0.111 A 
HETATM   22  C   UNL     1       7.746   2.852 -54.803  1.00  0.00     0.111 A 
HETATM   23  C   UNL     1       8.111   1.749 -54.060  1.00  0.00    -0.003 A 
HETATM   24  O   UNL     1       6.706   3.562 -54.204  1.00  0.00    -0.338 OA
HETATM   25  C   UNL     1       9.169   0.910 -54.317  1.00  0.00    -0.045 A 
HETATM   26  C   UNL     1       7.254   1.662 -52.870  1.00  0.00     0.030 C 
HETATM   27  C   UNL     1       9.927   1.244 -55.451  1.00  0.00     0.023 A 
HETATM   28  C   UNL     1       9.429  -0.194 -53.303  1.00  0.00     0.065 C 
HETATM   29  C   UNL     1       8.557  -0.147 -51.936  1.00  0.00     0.091 C 
HETATM   30  C   UNL     1       8.092   1.312 -51.653  1.00  0.00     0.046 C 
HETATM   31  N   UNL     1       7.406  -1.060 -51.842  1.00  0.00    -0.411 N 
HETATM   32  C   UNL     1       7.260   1.693 -50.426  1.00  0.00    -0.020 C 
HETATM   33  C   UNL     1       6.237   2.578 -50.483  1.00  0.00     0.004 C 
HETATM   34  C   UNL     1       5.812   3.335 -51.751  1.00  0.00     0.171 C 
HETATM   35  C   UNL     1       6.899   3.147 -52.821  1.00  0.00     0.175 C 
HETATM   36  C   UNL     1       6.097  -0.547 -52.233  1.00  0.00     0.118 C 
HETATM   37  C   UNL     1       7.629  -2.454 -52.156  1.00  0.00     0.143 C 
HETATM   38  C   UNL     1       6.128   0.643 -53.195  1.00  0.00     0.037 C 
BRANCH  21  39
HETATM   39  O   UNL     1       8.156   4.323 -56.599  1.00  0.00    -0.357 OA
HETATM   40  H   UNL     1       7.874   4.031 -57.487  1.00  0.00     0.217 HD
ENDBRANCH  21  39
BRANCH  34  41
HETATM   41  O   UNL     1       5.652   4.716 -51.435  1.00  0.00    -0.389 OA
HETATM   42  H   UNL     1       4.726   4.961 -51.596  1.00  0.00     0.210 HD
ENDBRANCH  34  41
ENDBRANCH  11  20
BRANCH  12  43
HETATM   43  O   UNL     1       9.197   1.645 -59.042  1.00  0.00    -0.357 OA
HETATM   44  H   UNL     1       9.238   1.549 -60.013  1.00  0.00     0.217 HD
ENDBRANCH  12  43
BRANCH  17  45
HETATM   45  O   UNL     1      13.330   0.395 -62.822  1.00  0.00    -0.389 OA
HETATM   46  H   UNL     1      13.988  -0.199 -62.424  1.00  0.00     0.210 HD
ENDBRANCH  17  45
TORSDOF 5
ENDMDL
MODEL 9
REMARK VINA RESULT:      -7.3     32.497     35.012
REMARK  5 active torsions:
REMARK  status: ('A' for Active; 'I' for Inactive)
REMARK    1  A    between atoms: C_11  and  C_22 
REMARK    2  A    between atoms: C_12  and  O_21 
REMARK    3  A    between atoms: C_17  and  O_20 
REMARK    4  A    between atoms: C_23  and  O_42 
REMARK    5  A    between atoms: C_38  and  O_41 
ROOT
HETATM    1  C   UNL     1      16.476  23.059 -49.099  1.00  0.00     0.310 C 
HETATM    2  N   UNL     1      15.595  22.028 -48.542  1.00  0.00     0.089 N 
HETATM    3  C   UNL     1      14.448  21.799 -49.428  1.00  0.00     0.273 C 
HETATM    4  C   UNL     1      13.652  20.535 -49.078  1.00  0.00     0.048 C 
HETATM    5  C   UNL     1      14.571  19.303 -48.866  1.00  0.00     0.030 C 
HETATM    6  C   UNL     1      16.043  19.588 -49.112  1.00  0.00     0.057 C 
HETATM    7  C   UNL     1      16.355  20.801 -48.185  1.00  0.00     0.235 C 
HETATM    8  C   UNL     1      16.065  20.419 -46.646  1.00  0.00     0.075 C 
HETATM    9  C   UNL     1      15.078  19.290 -46.407  1.00  0.00    -0.045 A 
HETATM   10  C   UNL     1      14.886  18.574 -45.222  1.00  0.00     0.023 A 
HETATM   11  C   UNL     1      14.053  17.401 -45.171  1.00  0.00     0.013 A 
HETATM   12  C   UNL     1      13.339  17.014 -46.336  1.00  0.00     0.111 A 
HETATM   13  C   UNL     1      13.522  17.736 -47.495  1.00  0.00     0.111 A 
HETATM   14  C   UNL     1      14.377  18.822 -47.491  1.00  0.00    -0.003 A 
HETATM   15  O   UNL     1      13.093  17.427 -48.789  1.00  0.00    -0.338 OA
HETATM   16  C   UNL     1      14.207  17.987 -49.549  1.00  0.00     0.175 C 
HETATM   17  C   UNL     1      14.125  18.253 -51.061  1.00  0.00     0.171 C 
HETATM   18  C   UNL     1      15.370  19.044 -51.489  1.00  0.00     0.004 C 
HETATM   19  C   UNL     1      16.242  19.627 -50.628  1.00  0.00    -0.020 C 
ENDROOT
BRANCH  11  20
HETATM   20  C   UNL     1      14.139  16.499 -43.991  1.00  0.00     0.013 A 
HETATM   21  C   UNL     1      15.350  15.794 -43.746  1.00  0.00     0.111 A 
HETATM   22  C   UNL     1      15.383  14.852 -42.750  1.00  0.00     0.111 A 
HETATM   23  C   UNL     1      14.249  14.626 -41.998  1.00  0.00    -0.003 A 
HETATM   24  O   UNL     1      16.402  13.953 -42.439  1.00  0.00    -0.338 OA
HETATM   25  C   UNL     1      13.039  15.262 -42.140  1.00  0.00    -0.045 A 
HETATM   26  C   UNL     1      14.495  13.508 -41.077  1.00  0.00     0.030 C 
HETATM   27  C   UNL     1      12.994  16.226 -43.161  1.00  0.00     0.023 A 
HETATM   28  C   UNL     1      11.903  14.779 -41.250  1.00  0.00     0.065 C 
HETATM   29  C   UNL     1      12.184  13.445 -40.370  1.00  0.00     0.091 C 
HETATM   30  C   UNL     1      13.290  12.585 -41.050  1.00  0.00     0.046 C 
HETATM   31  N   UNL     1      12.511  13.636 -38.948  1.00  0.00    -0.411 N 
HETATM   32  C   UNL     1      13.773  11.252 -40.474  1.00  0.00    -0.020 C 
HETATM   33  C   UNL     1      15.078  10.888 -40.469  1.00  0.00     0.004 C 
HETATM   34  C   UNL     1      16.216  11.728 -41.068  1.00  0.00     0.171 C 
HETATM   35  C   UNL     1      15.601  12.860 -41.907  1.00  0.00     0.175 C 
HETATM   36  C   UNL     1      13.921  13.704 -38.576  1.00  0.00     0.118 C 
HETATM   37  C   UNL     1      11.637  14.484 -38.166  1.00  0.00     0.143 C 
HETATM   38  C   UNL     1      14.868  14.126 -39.703  1.00  0.00     0.037 C 
BRANCH  21  39
HETATM   39  O   UNL     1      16.452  15.956 -44.538  1.00  0.00    -0.357 OA
HETATM   40  H   UNL     1      17.217  15.978 -43.931  1.00  0.00     0.217 HD
ENDBRANCH  21  39
BRANCH  34  41
HETATM   41  O   UNL     1      17.034  10.889 -41.879  1.00  0.00    -0.389 OA
HETATM   42  H   UNL     1      17.230  10.078 -41.381  1.00  0.00     0.210 HD
ENDBRANCH  34  41
ENDBRANCH  11  20
BRANCH  12  43
HETATM   43  O   UNL     1      12.585  15.875 -46.370  1.00  0.00    -0.357 OA
HETATM   44  H   UNL     1      12.851  15.405 -47.183  1.00  0.00     0.217 HD
ENDBRANCH  12  43
BRANCH  17  45
HETATM   45  O   UNL     1      14.121  17.023 -51.778  1.00  0.00    -0.389 OA
HETATM   46  H   UNL     1      15.049  16.780 -51.933  1.00  0.00     0.210 HD
ENDBRANCH  17  45
TORSDOF 5
ENDMDL
MODEL 10
REMARK VINA RESULT:      -7.3     31.876     34.720
REMARK  5 active torsions:
REMARK  status: ('A' for Active; 'I' for Inactive)
REMARK    1  A    between atoms: C_11  and  C_22 
REMARK    2  A    between atoms: C_12  and  O_21 
REMARK    3  A    between atoms: C_17  and  O_20 
REMARK    4  A    between atoms: C_23  and  O_42 
REMARK    5  A    between atoms: C_38  and  O_41 
ROOT
HETATM    1  C   UNL     1      15.563  11.604 -39.255  1.00  0.00     0.310 C 
HETATM    2  N   UNL     1      14.601  12.287 -40.126  1.00  0.00     0.089 N 
HETATM    3  C   UNL     1      13.238  11.812 -39.858  1.00  0.00     0.273 C 
HETATM    4  C   UNL     1      12.153  12.686 -40.500  1.00  0.00     0.048 C 
HETATM    5  C   UNL     1      12.384  14.198 -40.236  1.00  0.00     0.030 C 
HETATM    6  C   UNL     1      13.584  14.488 -39.350  1.00  0.00     0.057 C 
HETATM    7  C   UNL     1      14.765  13.763 -40.063  1.00  0.00     0.235 C 
HETATM    8  C   UNL     1      14.962  14.346 -41.553  1.00  0.00     0.075 C 
HETATM    9  C   UNL     1      13.745  14.996 -42.187  1.00  0.00    -0.045 A 
HETATM   10  C   UNL     1      13.723  15.829 -43.310  1.00  0.00     0.023 A 
HETATM   11  C   UNL     1      12.533  16.537 -43.705  1.00  0.00     0.013 A 
HETATM   12  C   UNL     1      11.329  16.312 -42.987  1.00  0.00     0.111 A 
HETATM   13  C   UNL     1      11.357  15.477 -41.892  1.00  0.00     0.111 A 
HETATM   14  C   UNL     1      12.545  14.867 -41.534  1.00  0.00    -0.003 A 
HETATM   15  O   UNL     1      10.365  15.269 -40.931  1.00  0.00    -0.338 OA
HETATM   16  C   UNL     1      11.208  15.049 -39.760  1.00  0.00     0.175 C 
HETATM   17  C   UNL     1      10.674  14.424 -38.462  1.00  0.00     0.171 C 
HETATM   18  C   UNL     1      11.862  14.133 -37.532  1.00  0.00     0.004 C 
HETATM   19  C   UNL     1      13.163  14.176 -37.913  1.00  0.00    -0.020 C 
ENDROOT
BRANCH  11  20
HETATM   20  C   UNL     1      12.642  17.647 -44.691  1.00  0.00     0.013 A 
HETATM   21  C   UNL     1      12.548  17.351 -46.079  1.00  0.00     0.111 A 
HETATM   22  C   UNL     1      12.796  18.345 -46.990  1.00  0.00     0.111 A 
HETATM   23  C   UNL     1      13.110  19.610 -46.539  1.00  0.00    -0.003 A 
HETATM   24  O   UNL     1      12.904  18.244 -48.376  1.00  0.00    -0.338 OA
HETATM   25  C   UNL     1      13.209  20.004 -45.226  1.00  0.00    -0.045 A 
HETATM   26  C   UNL     1      13.437  20.465 -47.689  1.00  0.00     0.030 C 
HETATM   27  C   UNL     1      12.961  18.993 -44.285  1.00  0.00     0.023 A 
HETATM   28  C   UNL     1      13.657  21.436 -44.974  1.00  0.00     0.065 C 
HETATM   29  C   UNL     1      14.155  22.282 -46.265  1.00  0.00     0.091 C 
HETATM   30  C   UNL     1      14.658  21.311 -47.374  1.00  0.00     0.046 C 
HETATM   31  N   UNL     1      13.203  23.244 -46.846  1.00  0.00    -0.411 N 
HETATM   32  C   UNL     1      15.209  21.800 -48.716  1.00  0.00    -0.020 C 
HETATM   33  C   UNL     1      14.923  21.187 -49.889  1.00  0.00     0.004 C 
HETATM   34  C   UNL     1      14.063  19.922 -50.022  1.00  0.00     0.171 C 
HETATM   35  C   UNL     1      13.847  19.327 -48.621  1.00  0.00     0.175 C 
HETATM   36  C   UNL     1      12.368  22.791 -47.954  1.00  0.00     0.118 C 
HETATM   37  C   UNL     1      12.563  24.179 -45.947  1.00  0.00     0.143 C 
HETATM   38  C   UNL     1      12.158  21.276 -48.029  1.00  0.00     0.037 C 
BRANCH  21  39
HETATM   39  O   UNL     1      12.315  16.083 -46.532  1.00  0.00    -0.357 OA
HETATM   40  H   UNL     1      13.149  15.594 -46.398  1.00  0.00     0.217 HD
ENDBRANCH  21  39
BRANCH  34  41
HETATM   41  O   UNL     1      14.735  18.990 -50.866  1.00  0.00    -0.389 OA
HETATM   42  H   UNL     1      14.147  18.230 -51.013  1.00  0.00     0.210 HD
ENDBRANCH  34  41
ENDBRANCH  11  20
BRANCH  12  43
HETATM   43  O   UNL     1      10.184  17.003 -43.273  1.00  0.00    -0.357 OA
HETATM   44  H   UNL     1      10.123  17.705 -42.597  1.00  0.00     0.217 HD
ENDBRANCH  12  43
BRANCH  17  45
HETATM   45  O   UNL     1       9.811  15.339 -37.794  1.00  0.00    -0.389 OA
HETATM   46  H   UNL     1       8.904  15.131 -38.073  1.00  0.00     0.210 HD
ENDBRANCH  17  45
TORSDOF 5
ENDMDL
