MODEL 1
REMARK VINA RESULT:      -8.4      0.000      0.000
REMARK  2 active torsions:
REMARK  status: ('A' for Active; 'I' for Inactive)
REMARK    1  A    between atoms: C_7  and  O_22 
REMARK    2  A    between atoms: C_16  and  O_19 
ROOT
HETATM    1  C   UNL     1      -0.452  16.581 -55.378  1.00  0.00     0.310 C 
HETATM    2  N   UNL     1      -0.047  16.357 -56.769  1.00  0.00     0.093 N 
HETATM    3  C   UNL     1       0.939  15.251 -56.829  1.00  0.00     0.274 C 
HETATM    4  C   UNL     1       1.244  14.717 -58.251  1.00  0.00     0.052 C 
HETATM    5  C   UNL     1      -0.035  14.658 -59.109  1.00  0.00     0.050 C 
HETATM    6  C   UNL     1      -0.243  13.543 -60.132  1.00  0.00     0.203 C 
HETATM    7  C   UNL     1      -0.444  12.259 -59.374  1.00  0.00     0.076 C 
HETATM    8  C   UNL     1      -1.318  12.327 -58.341  1.00  0.00     0.035 C 
HETATM    9  C   UNL     1      -1.859  13.625 -57.875  1.00  0.00     0.009 C 
HETATM   10  C   UNL     1      -1.208  14.765 -58.203  1.00  0.00    -0.030 C 
HETATM   11  C   UNL     1      -1.252  16.166 -57.638  1.00  0.00     0.257 C 
HETATM   12  C   UNL     1      -1.222  17.308 -58.748  1.00  0.00     0.079 C 
HETATM   13  C   UNL     1      -0.451  16.984 -60.011  1.00  0.00    -0.045 A 
HETATM   14  C   UNL     1       0.031  15.703 -60.149  1.00  0.00     0.001 A 
HETATM   15  C   UNL     1       0.536  15.149 -61.327  1.00  0.00     0.111 A 
HETATM   16  C   UNL     1       0.645  15.938 -62.449  1.00  0.00     0.102 A 
HETATM   17  C   UNL     1       0.276  17.292 -62.317  1.00  0.00     0.040 A 
HETATM   18  C   UNL     1      -0.289  17.807 -61.119  1.00  0.00     0.011 A 
HETATM   19  O   UNL     1       0.720  13.768 -61.184  1.00  0.00    -0.334 OA
ENDROOT
BRANCH   7  20
HETATM   20  O   UNL     1       0.112  11.086 -59.822  1.00  0.00    -0.357 OA
HETATM   21  C   UNL     1       1.464  10.962 -59.380  1.00  0.00     0.209 C 
ENDBRANCH   7  20
BRANCH  16  22
HETATM   22  O   UNL     1       1.024  15.528 -63.693  1.00  0.00    -0.353 OA
HETATM   23  C   UNL     1       0.008  14.810 -64.393  1.00  0.00     0.210 C 
ENDBRANCH  16  22
TORSDOF 2
ENDMDL
MODEL 2
REMARK VINA RESULT:      -8.2      2.118      4.608
REMARK  2 active torsions:
REMARK  status: ('A' for Active; 'I' for Inactive)
REMARK    1  A    between atoms: C_7  and  O_22 
REMARK    2  A    between atoms: C_16  and  O_19 
ROOT
HETATM    1  C   UNL     1       1.444  18.635 -62.455  1.00  0.00     0.310 C 
HETATM    2  N   UNL     1       1.445  17.253 -61.965  1.00  0.00     0.093 N 
HETATM    3  C   UNL     1       1.997  17.212 -60.590  1.00  0.00     0.274 C 
HETATM    4  C   UNL     1       1.803  15.870 -59.841  1.00  0.00     0.052 C 
HETATM    5  C   UNL     1       0.415  15.267 -60.133  1.00  0.00     0.050 C 
HETATM    6  C   UNL     1      -0.349  14.497 -59.057  1.00  0.00     0.203 C 
HETATM    7  C   UNL     1      -0.771  15.484 -58.004  1.00  0.00     0.076 C 
HETATM    8  C   UNL     1      -1.333  16.626 -58.470  1.00  0.00     0.035 C 
HETATM    9  C   UNL     1      -1.325  16.951 -59.915  1.00  0.00     0.009 C 
HETATM   10  C   UNL     1      -0.439  16.329 -60.726  1.00  0.00    -0.030 C 
HETATM   11  C   UNL     1       0.082  16.649 -62.108  1.00  0.00     0.257 C 
HETATM   12  C   UNL     1       0.226  15.373 -63.051  1.00  0.00     0.079 C 
HETATM   13  C   UNL     1       0.562  14.070 -62.357  1.00  0.00    -0.045 A 
HETATM   14  C   UNL     1       0.577  14.070 -60.981  1.00  0.00     0.001 A 
HETATM   15  C   UNL     1       0.613  12.932 -60.171  1.00  0.00     0.111 A 
HETATM   16  C   UNL     1       0.716  11.692 -60.757  1.00  0.00     0.102 A 
HETATM   17  C   UNL     1       0.828  11.655 -62.161  1.00  0.00     0.040 A 
HETATM   18  C   UNL     1       0.727  12.827 -62.958  1.00  0.00     0.011 A 
HETATM   19  O   UNL     1       0.383  13.273 -58.832  1.00  0.00    -0.334 OA
ENDROOT
BRANCH   7  20
HETATM   20  O   UNL     1      -0.722  15.152 -56.672  1.00  0.00    -0.357 OA
HETATM   21  C   UNL     1      -0.616  16.322 -55.860  1.00  0.00     0.209 C 
ENDBRANCH   7  20
BRANCH  16  22
HETATM   22  O   UNL     1       0.667  10.489 -60.117  1.00  0.00    -0.353 OA
HETATM   23  C   UNL     1       1.928   9.823 -60.054  1.00  0.00     0.210 C 
ENDBRANCH  16  22
TORSDOF 2
ENDMDL
MODEL 3
REMARK VINA RESULT:      -7.7      1.972      4.667
REMARK  2 active torsions:
REMARK  status: ('A' for Active; 'I' for Inactive)
REMARK    1  A    between atoms: C_7  and  O_22 
REMARK    2  A    between atoms: C_16  and  O_19 
ROOT
HETATM    1  C   UNL     1      -0.657  17.074 -56.571  1.00  0.00     0.310 C 
HETATM    2  N   UNL     1      -0.617  16.484 -57.912  1.00  0.00     0.093 N 
HETATM    3  C   UNL     1      -1.445  17.293 -58.837  1.00  0.00     0.274 C 
HETATM    4  C   UNL     1      -1.275  16.955 -60.340  1.00  0.00     0.052 C 
HETATM    5  C   UNL     1       0.200  16.663 -60.680  1.00  0.00     0.050 C 
HETATM    6  C   UNL     1       0.791  17.073 -62.028  1.00  0.00     0.203 C 
HETATM    7  C   UNL     1       0.867  18.575 -62.054  1.00  0.00     0.076 C 
HETATM    8  C   UNL     1       1.392  19.149 -60.943  1.00  0.00     0.035 C 
HETATM    9  C   UNL     1       1.662  18.354 -59.723  1.00  0.00     0.009 C 
HETATM   10  C   UNL     1       1.043  17.162 -59.562  1.00  0.00    -0.030 C 
HETATM   11  C   UNL     1       0.801  16.289 -58.353  1.00  0.00     0.257 C 
HETATM   12  C   UNL     1       1.002  14.733 -58.632  1.00  0.00     0.079 C 
HETATM   13  C   UNL     1       0.665  14.263 -60.031  1.00  0.00    -0.045 A 
HETATM   14  C   UNL     1       0.354  15.223 -60.966  1.00  0.00     0.001 A 
HETATM   15  C   UNL     1       0.265  15.015 -62.344  1.00  0.00     0.111 A 
HETATM   16  C   UNL     1       0.423  13.743 -62.843  1.00  0.00     0.102 A 
HETATM   17  C   UNL     1       0.623  12.708 -61.908  1.00  0.00     0.040 A 
HETATM   18  C   UNL     1       0.767  12.965 -60.518  1.00  0.00     0.011 A 
HETATM   19  O   UNL     1       0.163  16.236 -63.022  1.00  0.00    -0.334 OA
ENDROOT
BRANCH   7  20
HETATM   20  O   UNL     1       0.568  19.273 -63.198  1.00  0.00    -0.357 OA
HETATM   21  C   UNL     1       0.641  20.680 -62.969  1.00  0.00     0.209 C 
ENDBRANCH   7  20
BRANCH  16  22
HETATM   22  O   UNL     1       0.461  13.389 -64.160  1.00  0.00    -0.353 OA
HETATM   23  C   UNL     1      -0.801  12.969 -64.676  1.00  0.00     0.210 C 
ENDBRANCH  16  22
TORSDOF 2
ENDMDL
MODEL 4
REMARK VINA RESULT:      -6.8     13.555     14.806
REMARK  2 active torsions:
REMARK  status: ('A' for Active; 'I' for Inactive)
REMARK    1  A    between atoms: C_7  and  O_22 
REMARK    2  A    between atoms: C_16  and  O_19 
ROOT
HETATM    1  C   UNL     1     -14.039  11.889 -61.515  1.00  0.00     0.310 C 
HETATM    2  N   UNL     1     -13.953  12.657 -62.760  1.00  0.00     0.093 N 
HETATM    3  C   UNL     1     -15.214  13.409 -62.970  1.00  0.00     0.274 C 
HETATM    4  C   UNL     1     -15.166  14.476 -64.092  1.00  0.00     0.052 C 
HETATM    5  C   UNL     1     -13.815  15.219 -64.094  1.00  0.00     0.050 C 
HETATM    6  C   UNL     1     -13.736  16.703 -64.450  1.00  0.00     0.203 C 
HETATM    7  C   UNL     1     -14.393  17.474 -63.338  1.00  0.00     0.076 C 
HETATM    8  C   UNL     1     -14.024  17.114 -62.085  1.00  0.00     0.035 C 
HETATM    9  C   UNL     1     -13.201  15.907 -61.843  1.00  0.00     0.009 C 
HETATM   10  C   UNL     1     -13.135  14.952 -62.799  1.00  0.00    -0.030 C 
HETATM   11  C   UNL     1     -12.716  13.500 -62.769  1.00  0.00     0.257 C 
HETATM   12  C   UNL     1     -11.847  13.055 -64.027  1.00  0.00     0.079 C 
HETATM   13  C   UNL     1     -12.153  13.766 -65.329  1.00  0.00    -0.045 A 
HETATM   14  C   UNL     1     -13.043  14.815 -65.285  1.00  0.00     0.001 A 
HETATM   15  C   UNL     1     -13.258  15.740 -66.309  1.00  0.00     0.111 A 
HETATM   16  C   UNL     1     -12.599  15.582 -67.506  1.00  0.00     0.102 A 
HETATM   17  C   UNL     1     -11.770  14.450 -67.637  1.00  0.00     0.040 A 
HETATM   18  C   UNL     1     -11.528  13.563 -66.554  1.00  0.00     0.011 A 
HETATM   19  O   UNL     1     -14.047  16.804 -65.855  1.00  0.00    -0.334 OA
ENDROOT
BRANCH   7  20
HETATM   20  O   UNL     1     -15.183  18.564 -63.612  1.00  0.00    -0.357 OA
HETATM   21  C   UNL     1     -15.347  19.377 -62.450  1.00  0.00     0.209 C 
ENDBRANCH   7  20
BRANCH  16  22
HETATM   22  O   UNL     1     -12.625  16.444 -68.563  1.00  0.00    -0.353 OA
HETATM   23  C   UNL     1     -12.172  15.863 -69.786  1.00  0.00     0.210 C 
ENDBRANCH  16  22
TORSDOF 2
ENDMDL
MODEL 5
REMARK VINA RESULT:      -6.8     14.218     17.612
REMARK  2 active torsions:
REMARK  status: ('A' for Active; 'I' for Inactive)
REMARK    1  A    between atoms: C_7  and  O_22 
REMARK    2  A    between atoms: C_16  and  O_19 
ROOT
HETATM    1  C   UNL     1      13.350   5.421 -62.850  1.00  0.00     0.310 C 
HETATM    2  N   UNL     1      13.051   4.358 -61.886  1.00  0.00     0.093 N 
HETATM    3  C   UNL     1      12.646   4.957 -60.592  1.00  0.00     0.274 C 
HETATM    4  C   UNL     1      12.035   3.968 -59.570  1.00  0.00     0.052 C 
HETATM    5  C   UNL     1      11.114   2.946 -60.268  1.00  0.00     0.050 C 
HETATM    6  C   UNL     1       9.851   2.429 -59.581  1.00  0.00     0.203 C 
HETATM    7  C   UNL     1       8.874   3.570 -59.506  1.00  0.00     0.076 C 
HETATM    8  C   UNL     1       8.715   4.274 -60.654  1.00  0.00     0.035 C 
HETATM    9  C   UNL     1       9.605   4.057 -61.818  1.00  0.00     0.009 C 
HETATM   10  C   UNL     1      10.802   3.456 -61.628  1.00  0.00    -0.030 C 
HETATM   11  C   UNL     1      12.060   3.395 -62.464  1.00  0.00     0.257 C 
HETATM   12  C   UNL     1      12.749   1.959 -62.484  1.00  0.00     0.079 C 
HETATM   13  C   UNL     1      12.589   1.130 -61.227  1.00  0.00    -0.045 A 
HETATM   14  C   UNL     1      11.760   1.620 -60.245  1.00  0.00     0.001 A 
HETATM   15  C   UNL     1      11.292   0.898 -59.144  1.00  0.00     0.111 A 
HETATM   16  C   UNL     1      11.732  -0.391 -58.949  1.00  0.00     0.102 A 
HETATM   17  C   UNL     1      12.679  -0.890 -59.866  1.00  0.00     0.040 A 
HETATM   18  C   UNL     1      13.087  -0.150 -61.008  1.00  0.00     0.011 A 
HETATM   19  O   UNL     1      10.292   1.613 -58.475  1.00  0.00    -0.334 OA
ENDROOT
BRANCH   7  20
HETATM   20  O   UNL     1       8.097   3.757 -58.389  1.00  0.00    -0.357 OA
HETATM   21  C   UNL     1       6.907   2.971 -58.460  1.00  0.00     0.209 C 
ENDBRANCH   7  20
BRANCH  16  22
HETATM   22  O   UNL     1      11.301  -1.256 -57.987  1.00  0.00    -0.353 OA
HETATM   23  C   UNL     1      10.142  -1.999 -58.362  1.00  0.00     0.210 C 
ENDBRANCH  16  22
TORSDOF 2
ENDMDL
MODEL 6
REMARK VINA RESULT:      -6.4     14.677     16.368
REMARK  2 active torsions:
REMARK  status: ('A' for Active; 'I' for Inactive)
REMARK    1  A    between atoms: C_7  and  O_22 
REMARK    2  A    between atoms: C_16  and  O_19 
ROOT
HETATM    1  C   UNL     1     -12.208  16.245 -70.492  1.00  0.00     0.310 C 
HETATM    2  N   UNL     1     -12.381  16.024 -69.054  1.00  0.00     0.093 N 
HETATM    3  C   UNL     1     -13.056  17.197 -68.447  1.00  0.00     0.274 C 
HETATM    4  C   UNL     1     -13.555  16.992 -66.995  1.00  0.00     0.052 C 
HETATM    5  C   UNL     1     -14.143  15.579 -66.804  1.00  0.00     0.050 C 
HETATM    6  C   UNL     1     -15.336  15.344 -65.879  1.00  0.00     0.203 C 
HETATM    7  C   UNL     1     -16.539  15.984 -66.515  1.00  0.00     0.076 C 
HETATM    8  C   UNL     1     -16.710  15.715 -67.833  1.00  0.00     0.035 C 
HETATM    9  C   UNL     1     -15.663  15.021 -68.618  1.00  0.00     0.009 C 
HETATM   10  C   UNL     1     -14.395  14.995 -68.147  1.00  0.00    -0.030 C 
HETATM   11  C   UNL     1     -13.065  14.715 -68.806  1.00  0.00     0.257 C 
HETATM   12  C   UNL     1     -12.083  13.827 -67.920  1.00  0.00     0.079 C 
HETATM   13  C   UNL     1     -12.206  13.998 -66.421  1.00  0.00    -0.045 A 
HETATM   14  C   UNL     1     -13.232  14.788 -65.954  1.00  0.00     0.001 A 
HETATM   15  C   UNL     1     -13.659  14.862 -64.626  1.00  0.00     0.111 A 
HETATM   16  C   UNL     1     -12.976  14.160 -63.661  1.00  0.00     0.102 A 
HETATM   17  C   UNL     1     -11.842  13.434 -64.077  1.00  0.00     0.040 A 
HETATM   18  C   UNL     1     -11.473  13.332 -65.445  1.00  0.00     0.011 A 
HETATM   19  O   UNL     1     -14.862  15.572 -64.534  1.00  0.00    -0.334 OA
ENDROOT
BRANCH   7  20
HETATM   20  O   UNL     1     -17.464  16.653 -65.752  1.00  0.00    -0.357 OA
HETATM   21  C   UNL     1     -18.756  16.062 -65.884  1.00  0.00     0.209 C 
ENDBRANCH   7  20
BRANCH  16  22
HETATM   22  O   UNL     1     -13.320  14.051 -62.345  1.00  0.00    -0.353 OA
HETATM   23  C   UNL     1     -12.311  14.517 -61.450  1.00  0.00     0.210 C 
ENDBRANCH  16  22
TORSDOF 2
ENDMDL
MODEL 7
REMARK VINA RESULT:      -6.3     19.456     22.016
REMARK  2 active torsions:
REMARK  status: ('A' for Active; 'I' for Inactive)
REMARK    1  A    between atoms: C_7  and  O_22 
REMARK    2  A    between atoms: C_16  and  O_19 
ROOT
HETATM    1  C   UNL     1      11.063  13.352 -37.121  1.00  0.00     0.310 C 
HETATM    2  N   UNL     1      11.081  14.131 -38.361  1.00  0.00     0.093 N 
HETATM    3  C   UNL     1      12.291  14.988 -38.394  1.00  0.00     0.274 C 
HETATM    4  C   UNL     1      12.590  15.655 -39.759  1.00  0.00     0.052 C 
HETATM    5  C   UNL     1      12.297  14.690 -40.925  1.00  0.00     0.050 C 
HETATM    6  C   UNL     1      13.158  14.699 -42.187  1.00  0.00     0.203 C 
HETATM    7  C   UNL     1      14.515  14.168 -41.817  1.00  0.00     0.076 C 
HETATM    8  C   UNL     1      14.512  13.035 -41.073  1.00  0.00     0.035 C 
HETATM    9  C   UNL     1      13.258  12.497 -40.497  1.00  0.00     0.009 C 
HETATM   10  C   UNL     1      12.187  13.314 -40.374  1.00  0.00    -0.030 C 
HETATM   11  C   UNL     1      10.925  13.229 -39.546  1.00  0.00     0.257 C 
HETATM   12  C   UNL     1       9.613  13.690 -40.324  1.00  0.00     0.079 C 
HETATM   13  C   UNL     1       9.808  14.770 -41.368  1.00  0.00    -0.045 A 
HETATM   14  C   UNL     1      11.098  15.156 -41.649  1.00  0.00     0.001 A 
HETATM   15  C   UNL     1      11.492  15.937 -42.738  1.00  0.00     0.111 A 
HETATM   16  C   UNL     1      10.532  16.446 -43.583  1.00  0.00     0.102 A 
HETATM   17  C   UNL     1       9.187  16.176 -43.260  1.00  0.00     0.040 A 
HETATM   18  C   UNL     1       8.826  15.328 -42.179  1.00  0.00     0.011 A 
HETATM   19  O   UNL     1      12.887  15.947 -42.859  1.00  0.00    -0.334 OA
ENDROOT
BRANCH   7  20
HETATM   20  O   UNL     1      15.654  14.725 -42.345  1.00  0.00    -0.357 OA
HETATM   21  C   UNL     1      16.652  13.727 -42.568  1.00  0.00     0.209 C 
ENDBRANCH   7  20
BRANCH  16  22
HETATM   22  O   UNL     1      10.755  17.140 -44.735  1.00  0.00    -0.353 OA
HETATM   23  C   UNL     1      10.022  16.643 -45.854  1.00  0.00     0.210 C 
ENDBRANCH  16  22
TORSDOF 2
ENDMDL
MODEL 8
REMARK VINA RESULT:      -6.1      2.516      4.634
REMARK  2 active torsions:
REMARK  status: ('A' for Active; 'I' for Inactive)
REMARK    1  A    between atoms: C_7  and  O_22 
REMARK    2  A    between atoms: C_16  and  O_19 
ROOT
HETATM    1  C   UNL     1       0.761  15.203 -63.854  1.00  0.00     0.310 C 
HETATM    2  N   UNL     1       0.166  15.564 -62.564  1.00  0.00     0.093 N 
HETATM    3  C   UNL     1      -1.015  14.708 -62.302  1.00  0.00     0.274 C 
HETATM    4  C   UNL     1      -1.577  14.783 -60.860  1.00  0.00     0.052 C 
HETATM    5  C   UNL     1      -0.438  14.863 -59.824  1.00  0.00     0.050 C 
HETATM    6  C   UNL     1      -0.567  14.184 -58.461  1.00  0.00     0.203 C 
HETATM    7  C   UNL     1      -0.535  12.697 -58.687  1.00  0.00     0.076 C 
HETATM    8  C   UNL     1       0.447  12.257 -59.512  1.00  0.00     0.035 C 
HETATM    9  C   UNL     1       1.278  13.203 -60.292  1.00  0.00     0.009 C 
HETATM   10  C   UNL     1       0.828  14.464 -60.493  1.00  0.00    -0.030 C 
HETATM   11  C   UNL     1       1.206  15.538 -61.486  1.00  0.00     0.257 C 
HETATM   12  C   UNL     1       1.273  17.000 -60.856  1.00  0.00     0.079 C 
HETATM   13  C   UNL     1       0.318  17.274 -59.714  1.00  0.00    -0.045 A 
HETATM   14  C   UNL     1      -0.417  16.214 -59.233  1.00  0.00     0.001 A 
HETATM   15  C   UNL     1      -1.148  16.209 -58.043  1.00  0.00     0.111 A 
HETATM   16  C   UNL     1      -1.227  17.362 -57.297  1.00  0.00     0.102 A 
HETATM   17  C   UNL     1      -0.590  18.506 -57.817  1.00  0.00     0.040 A 
HETATM   18  C   UNL     1       0.195  18.461 -59.000  1.00  0.00     0.011 A 
HETATM   19  O   UNL     1      -1.579  14.912 -57.735  1.00  0.00    -0.334 OA
ENDROOT
BRANCH   7  20
HETATM   20  O   UNL     1      -1.354  11.861 -57.970  1.00  0.00    -0.357 OA
HETATM   21  C   UNL     1      -1.739  10.731 -58.754  1.00  0.00     0.209 C 
ENDBRANCH   7  20
BRANCH  16  22
HETATM   22  O   UNL     1      -1.816  17.495 -56.074  1.00  0.00    -0.353 OA
HETATM   23  C   UNL     1      -3.220  17.743 -56.138  1.00  0.00     0.210 C 
ENDBRANCH  16  22
TORSDOF 2
ENDMDL
MODEL 9
REMARK VINA RESULT:      -6.0      5.367      7.125
REMARK  2 active torsions:
REMARK  status: ('A' for Active; 'I' for Inactive)
REMARK    1  A    between atoms: C_7  and  O_22 
REMARK    2  A    between atoms: C_16  and  O_19 
ROOT
HETATM    1  C   UNL     1       7.661  21.088 -60.636  1.00  0.00     0.310 C 
HETATM    2  N   UNL     1       6.329  20.944 -61.231  1.00  0.00     0.093 N 
HETATM    3  C   UNL     1       6.122  19.539 -61.656  1.00  0.00     0.274 C 
HETATM    4  C   UNL     1       4.667  19.175 -62.044  1.00  0.00     0.052 C 
HETATM    5  C   UNL     1       3.654  19.853 -61.100  1.00  0.00     0.050 C 
HETATM    6  C   UNL     1       2.359  19.147 -60.702  1.00  0.00     0.203 C 
HETATM    7  C   UNL     1       2.724  17.989 -59.815  1.00  0.00     0.076 C 
HETATM    8  C   UNL     1       3.609  18.271 -58.827  1.00  0.00     0.035 C 
HETATM    9  C   UNL     1       4.315  19.572 -58.776  1.00  0.00     0.009 C 
HETATM   10  C   UNL     1       4.386  20.327 -59.896  1.00  0.00    -0.030 C 
HETATM   11  C   UNL     1       5.282  21.475 -60.301  1.00  0.00     0.257 C 
HETATM   12  C   UNL     1       4.520  22.648 -61.063  1.00  0.00     0.079 C 
HETATM   13  C   UNL     1       3.336  22.228 -61.909  1.00  0.00    -0.045 A 
HETATM   14  C   UNL     1       2.940  20.912 -61.837  1.00  0.00     0.001 A 
HETATM   15  C   UNL     1       1.739  20.399 -62.334  1.00  0.00     0.111 A 
HETATM   16  C   UNL     1       0.886  21.229 -63.023  1.00  0.00     0.102 A 
HETATM   17  C   UNL     1       1.311  22.558 -63.225  1.00  0.00     0.040 A 
HETATM   18  C   UNL     1       2.511  23.061 -62.655  1.00  0.00     0.011 A 
HETATM   19  O   UNL     1       1.545  19.084 -61.892  1.00  0.00    -0.334 OA
ENDROOT
BRANCH   7  20
HETATM   20  O   UNL     1       2.070  16.787 -59.926  1.00  0.00    -0.357 OA
HETATM   21  C   UNL     1       0.987  16.710 -58.998  1.00  0.00     0.209 C 
ENDBRANCH   7  20
BRANCH  16  22
HETATM   22  O   UNL     1      -0.357  20.910 -63.484  1.00  0.00    -0.353 OA
HETATM   23  C   UNL     1      -0.761  21.677 -64.618  1.00  0.00     0.210 C 
ENDBRANCH  16  22
TORSDOF 2
ENDMDL
MODEL 10
REMARK VINA RESULT:      -5.9     15.470     18.015
REMARK  2 active torsions:
REMARK  status: ('A' for Active; 'I' for Inactive)
REMARK    1  A    between atoms: C_7  and  O_22 
REMARK    2  A    between atoms: C_16  and  O_19 
ROOT
HETATM    1  C   UNL     1      17.627   6.021 -63.982  1.00  0.00     0.310 C 
HETATM    2  N   UNL     1      16.473   5.425 -63.303  1.00  0.00     0.093 N 
HETATM    3  C   UNL     1      16.941   4.483 -62.259  1.00  0.00     0.274 C 
HETATM    4  C   UNL     1      15.848   3.992 -61.277  1.00  0.00     0.052 C 
HETATM    5  C   UNL     1      14.879   5.133 -60.908  1.00  0.00     0.050 C 
HETATM    6  C   UNL     1      14.277   5.229 -59.507  1.00  0.00     0.203 C 
HETATM    7  C   UNL     1      15.387   5.586 -58.557  1.00  0.00     0.076 C 
HETATM    8  C   UNL     1      16.192   6.599 -58.959  1.00  0.00     0.035 C 
HETATM    9  C   UNL     1      16.102   7.154 -60.330  1.00  0.00     0.009 C 
HETATM   10  C   UNL     1      15.508   6.422 -61.300  1.00  0.00    -0.030 C 
HETATM   11  C   UNL     1      15.550   6.496 -62.808  1.00  0.00     0.257 C 
HETATM   12  C   UNL     1      14.136   6.262 -63.503  1.00  0.00     0.079 C 
HETATM   13  C   UNL     1      13.189   5.327 -62.779  1.00  0.00    -0.045 A 
HETATM   14  C   UNL     1      13.569   4.877 -61.536  1.00  0.00     0.001 A 
HETATM   15  C   UNL     1      12.738   4.226 -60.621  1.00  0.00     0.111 A 
HETATM   16  C   UNL     1      11.446   3.925 -60.981  1.00  0.00     0.102 A 
HETATM   17  C   UNL     1      11.053   4.259 -62.293  1.00  0.00     0.040 A 
HETATM   18  C   UNL     1      11.904   4.974 -63.177  1.00  0.00     0.011 A 
HETATM   19  O   UNL     1      13.369   4.115 -59.375  1.00  0.00    -0.334 OA
ENDROOT
BRANCH   7  20
HETATM   20  O   UNL     1      15.453   5.015 -57.310  1.00  0.00    -0.357 OA
HETATM   21  C   UNL     1      16.245   5.811 -56.428  1.00  0.00     0.209 C 
ENDBRANCH   7  20
BRANCH  16  22
HETATM   22  O   UNL     1      10.487   3.383 -60.177  1.00  0.00    -0.353 OA
HETATM   23  C   UNL     1       9.186   3.374 -60.765  1.00  0.00     0.210 C 
ENDBRANCH  16  22
TORSDOF 2
ENDMDL
