REMARK  7 active torsions:
REMARK  status: ('A' for Active; 'I' for Inactive)
REMARK    1  A    between atoms: C_2  and  C_3 
REMARK    2  A    between atoms: C_8  and  O_31 
REMARK    3  A    between atoms: C_14  and  O_18 
REMARK    4  A    between atoms: C_22  and  C_23 
REMARK    5  A    between atoms: C_23  and  C_27 
REMARK    6  A    between atoms: C_24  and  O_25 
REMARK    7  A    between atoms: C_27  and  O_29 
ROOT
HETATM    1  C   UNL     1       1.307  -2.274  -0.379  1.00  0.00     0.022 C 
HETATM    2  C   UNL     1       0.375  -2.440   0.866  1.00  0.00     0.278 C 
HETATM    3  N   UNL     1       0.397  -3.752   1.529  1.00  0.00     0.099 N 
HETATM    4  C   UNL     1      -0.842  -4.009   2.352  1.00  0.00     0.277 C 
HETATM    5  C   UNL     1      -1.103  -5.506   2.848  1.00  0.00     0.080 C 
HETATM    6  C   UNL     1      -0.715  -6.608   1.785  1.00  0.00     0.132 C 
HETATM    7  C   UNL     1       0.641  -6.045   1.452  1.00  0.00     0.060 C 
HETATM    8  N   UNL     1       1.597  -6.498   2.242  1.00  0.00    -0.358 N 
ATOM      9  HN  UNL     1       2.529  -6.111   2.387  1.00  0.00     0.165 HD
HETATM   10  C   UNL     1       1.017  -7.663   2.849  1.00  0.00     0.044 C 
HETATM   11  C   UNL     1      -0.191  -7.935   2.229  1.00  0.00     0.042 C 
HETATM   12  C   UNL     1      -0.138  -9.150   1.574  1.00  0.00     0.080 C 
HETATM   13  C   UNL     1       0.464 -10.238   2.206  1.00  0.00     0.037 C 
HETATM   14  C   UNL     1       1.294  -9.987   3.300  1.00  0.00     0.005 C 
HETATM   15  C   UNL     1       1.679  -8.664   3.543  1.00  0.00     0.030 C 
HETATM   16  C   UNL     1       0.513  -4.851   0.576  1.00  0.00     0.272 C 
HETATM   17  C   UNL     1       1.409  -4.795  -0.640  1.00  0.00     0.052 C 
HETATM   18  C   UNL     1       1.104  -3.472  -1.353  1.00  0.00     0.035 C 
ENDROOT
BRANCH  18  19
HETATM   19  C   UNL     1       1.672  -3.329  -2.751  1.00  0.00     0.043 C 
HETATM   20  C   UNL     1       1.038  -3.072  -3.920  1.00  0.00     0.147 C 
BRANCH  20  21
HETATM   21  O   UNL     1      -0.251  -2.848  -4.298  1.00  0.00    -0.367 OA
HETATM   22  C   UNL     1      -1.345  -3.013  -3.417  1.00  0.00     0.208 C 
ENDBRANCH  20  21
BRANCH  19  23
HETATM   23  C   UNL     1       3.138  -3.576  -2.911  1.00  0.00     0.291 C 
HETATM   24  O   UNL     1       3.742  -4.475  -2.358  1.00  0.00    -0.260 OA
BRANCH  23  25
HETATM   25  O   UNL     1       3.688  -2.622  -3.708  1.00  0.00    -0.323 OA
HETATM   26  C   UNL     1       5.099  -2.727  -3.896  1.00  0.00     0.213 C 
ENDBRANCH  23  25
ENDBRANCH  19  23
ENDBRANCH  18  19
BRANCH   1  27
HETATM   27  C   UNL     1       2.771  -1.908  -0.043  1.00  0.00     0.002 C 
HETATM   28  C   UNL     1       3.543  -2.761   0.950  1.00  0.00     0.005 C 
ENDBRANCH   1  27
BRANCH   6  29
HETATM   29  O   UNL     1      -1.718  -6.703   0.808  1.00  0.00    -0.379 OA
HETATM   30  H   UNL     1      -2.520  -7.020   1.257  1.00  0.00     0.211 HD
ENDBRANCH   6  29
BRANCH  12  31
HETATM   31  O   UNL     1      -0.171  -9.179   0.188  1.00  0.00    -0.355 OA
HETATM   32  C   UNL     1       1.128  -8.802  -0.347  1.00  0.00     0.210 C 
ENDBRANCH  12  31
TORSDOF 7
