REMARK  7 active torsions:
REMARK  status: ('A' for Active; 'I' for Inactive)
REMARK    1  A    between atoms: C_2  and  C_3 
REMARK    2  A    between atoms: C_2  and  C_11 
REMARK    3  A    between atoms: C_2  and  O_36 
REMARK    4  A    between atoms: C_3  and  C_4 
REMARK    5  A    between atoms: C_4  and  C_5 
REMARK    6  A    between atoms: C_16  and  O_34 
REMARK    7  A    between atoms: C_27  and  O_30 
ROOT
HETATM    1  C   UNL     1      -0.601  -1.614  -0.456  1.00  0.00     0.062 C 
HETATM    2  C   UNL     1      -1.244  -0.187  -0.746  1.00  0.00     0.028 C 
HETATM    3  C   UNL     1      -2.711  -0.338  -1.226  1.00  0.00     0.024 C 
HETATM    4  C   UNL     1      -2.622  -1.459  -2.292  1.00  0.00    -0.015 C 
HETATM    5  C   UNL     1      -2.312  -2.682  -1.817  1.00  0.00     0.011 C 
HETATM    6  C   UNL     1      -1.794  -2.699  -0.368  1.00  0.00     0.112 C 
HETATM    7  C   UNL     1      -2.983  -2.171   0.547  1.00  0.00     0.182 C 
HETATM    8  C   UNL     1      -3.516  -0.840  -0.012  1.00  0.00     0.035 C 
HETATM    9  C   UNL     1      -3.618   0.273   1.109  1.00  0.00     0.048 C 
HETATM   10  C   UNL     1      -3.625   1.798   0.667  1.00  0.00     0.273 C 
HETATM   11  N   UNL     1      -3.381   2.115  -0.783  1.00  0.00     0.090 N 
HETATM   12  C   UNL     1      -3.628   0.906  -1.599  1.00  0.00     0.240 C 
HETATM   13  C   UNL     1      -4.838   0.437  -2.502  1.00  0.00     0.076 C 
HETATM   14  C   UNL     1      -5.483  -0.783  -1.766  1.00  0.00    -0.046 C 
HETATM   15  C   UNL     1      -4.832  -1.315  -0.610  1.00  0.00    -0.003 C 
HETATM   16  C   UNL     1      -5.147  -2.545  -0.089  1.00  0.00     0.110 C 
HETATM   17  C   UNL     1      -6.311  -3.161  -0.505  1.00  0.00     0.102 C 
HETATM   18  C   UNL     1      -7.023  -2.631  -1.599  1.00  0.00     0.040 C 
HETATM   19  C   UNL     1      -6.593  -1.463  -2.254  1.00  0.00     0.011 C 
HETATM   20  O   UNL     1      -4.147  -3.072   0.696  1.00  0.00    -0.338 OA
HETATM   21  C   UNL     1      -2.141   2.824  -1.021  1.00  0.00     0.310 C 
ENDROOT
BRANCH   1  22
HETATM   22  C   UNL     1       0.740  -1.561   0.401  1.00  0.00     0.061 C 
HETATM   23  C   UNL     1       1.051  -0.185   1.017  1.00  0.00     0.046 C 
BRANCH  22  24
HETATM   24  C   UNL     1       1.122  -2.697   1.385  1.00  0.00     0.042 C 
BRANCH  24  25
HETATM   25  C   UNL     1       0.860  -2.515   2.886  1.00  0.00     0.041 C 
BRANCH  25  26
HETATM   26  C   UNL     1      -0.529  -2.832   3.359  1.00  0.00    -0.058 A 
HETATM   27  C   UNL     1      -1.065  -4.112   3.164  1.00  0.00     0.007 A 
HETATM   28  C   UNL     1      -2.346  -4.422   3.614  1.00  0.00     0.001 A 
HETATM   29  C   UNL     1      -3.095  -3.462   4.290  1.00  0.00     0.000 A 
HETATM   30  C   UNL     1      -2.560  -2.196   4.521  1.00  0.00     0.001 A 
HETATM   31  C   UNL     1      -1.280  -1.881   4.060  1.00  0.00     0.007 A 
ENDBRANCH  25  26
ENDBRANCH  24  25
ENDBRANCH  22  24
BRANCH  22  32
HETATM   32  O   UNL     1       1.802  -1.692  -0.614  1.00  0.00    -0.390 OA
HETATM   33  H   UNL     1       1.715  -0.958  -1.247  1.00  0.00     0.210 HD
ENDBRANCH  22  32
ENDBRANCH   1  22
BRANCH   6  34
HETATM   34  O   UNL     1      -1.393  -3.990   0.061  1.00  0.00    -0.378 OA
HETATM   35  C   UNL     1      -0.586  -4.762  -0.815  1.00  0.00     0.203 C 
ENDBRANCH   6  34
BRANCH  17  36
HETATM   36  O   UNL     1      -6.809  -4.278   0.105  1.00  0.00    -0.353 OA
HETATM   37  C   UNL     1      -7.514  -3.874   1.283  1.00  0.00     0.210 C 
ENDBRANCH  17  36
TORSDOF 7
