REMARK  7 active torsions:
REMARK  status: ('A' for Active; 'I' for Inactive)
REMARK    1  A    between atoms: C_2  and  C_3 
REMARK    2  A    between atoms: C_3  and  C_4 
REMARK    3  A    between atoms: C_4  and  O_33 
REMARK    4  A    between atoms: C_4  and  C_6 
REMARK    5  A    between atoms: C_11  and  O_31 
REMARK    6  A    between atoms: C_22  and  O_25 
REMARK    7  A    between atoms: O_25  and  C_26 
ROOT
HETATM    1  C   UNL     1       0.689  -3.118  -3.287  1.00  0.00     0.062 C 
HETATM    2  C   UNL     1      -0.847  -3.552  -3.451  1.00  0.00     0.028 C 
HETATM    3  C   UNL     1      -1.201  -4.640  -2.380  1.00  0.00     0.024 C 
HETATM    4  C   UNL     1      -0.763  -3.952  -1.067  1.00  0.00    -0.015 C 
HETATM    5  C   UNL     1       0.562  -3.745  -0.938  1.00  0.00     0.011 C 
HETATM    6  C   UNL     1       1.381  -4.040  -2.196  1.00  0.00     0.112 C 
HETATM    7  C   UNL     1       1.190  -5.548  -2.598  1.00  0.00     0.182 C 
HETATM    8  C   UNL     1      -0.311  -5.865  -2.668  1.00  0.00     0.035 C 
HETATM    9  C   UNL     1      -0.736  -6.504  -4.054  1.00  0.00     0.048 C 
HETATM   10  C   UNL     1      -2.239  -6.294  -4.567  1.00  0.00     0.273 C 
HETATM   11  N   UNL     1      -3.171  -5.459  -3.707  1.00  0.00     0.090 N 
HETATM   12  C   UNL     1      -2.586  -5.423  -2.358  1.00  0.00     0.240 C 
HETATM   13  C   UNL     1      -2.885  -6.029  -0.951  1.00  0.00     0.076 C 
HETATM   14  C   UNL     1      -1.602  -6.829  -0.573  1.00  0.00    -0.046 C 
HETATM   15  C   UNL     1      -0.446  -6.722  -1.408  1.00  0.00    -0.003 C 
HETATM   16  C   UNL     1       0.803  -7.048  -0.938  1.00  0.00     0.111 C 
HETATM   17  C   UNL     1       0.921  -7.678   0.285  1.00  0.00     0.113 C 
HETATM   18  C   UNL     1      -0.224  -7.978   1.042  1.00  0.00     0.041 C 
HETATM   19  C   UNL     1      -1.486  -7.521   0.632  1.00  0.00     0.011 C 
HETATM   20  O   UNL     1       1.825  -6.488  -1.662  1.00  0.00    -0.338 OA
HETATM   21  C   UNL     1      -4.514  -6.051  -3.693  1.00  0.00     0.310 C 
ENDROOT
BRANCH   1  22
HETATM   22  C   UNL     1       1.467  -2.743  -4.616  1.00  0.00     0.061 C 
HETATM   23  C   UNL     1       1.076  -3.568  -5.839  1.00  0.00     0.046 C 
BRANCH  22  24
HETATM   24  C   UNL     1       1.310  -1.200  -4.819  1.00  0.00     0.037 C 
BRANCH  24  25
HETATM   25  C   UNL     1       1.542  -0.612  -6.213  1.00  0.00    -0.002 C 
HETATM   26  C   UNL     1       0.241  -0.493  -6.995  1.00  0.00     0.005 C 
ENDBRANCH  24  25
ENDBRANCH  22  24
BRANCH  22  27
HETATM   27  O   UNL     1       2.886  -2.934  -4.503  1.00  0.00    -0.390 OA
HETATM   28  H   UNL     1       3.078  -3.650  -3.868  1.00  0.00     0.210 HD
ENDBRANCH  22  27
ENDBRANCH   1  22
BRANCH   6  29
HETATM   29  O   UNL     1       2.780  -3.813  -2.040  1.00  0.00    -0.378 OA
HETATM   30  C   UNL     1       3.198  -2.555  -1.526  1.00  0.00     0.203 C 
ENDBRANCH   6  29
BRANCH  17  31
HETATM   31  O   UNL     1       2.179  -7.990   0.815  1.00  0.00    -0.276 OA
BRANCH  31  32
HETATM   32  C   UNL     1       2.759  -7.131   1.742  1.00  0.00     0.260 C 
HETATM   33  O   UNL     1       3.652  -7.518   2.493  1.00  0.00    -0.265 OA
HETATM   34  C   UNL     1       2.263  -5.711   1.765  1.00  0.00     0.126 C 
ENDBRANCH  31  32
ENDBRANCH  17  31
TORSDOF 7
