REMARK  7 active torsions:
REMARK  status: ('A' for Active; 'I' for Inactive)
REMARK    1  A    between atoms: C_2  and  C_3 
REMARK       I    between atoms: C_3  and  N_5 
REMARK    2  A    between atoms: N_5  and  C_6 
REMARK    3  A    between atoms: N_5  and  C_20 
REMARK    4  A    between atoms: N_9  and  C_12 
REMARK    5  A    between atoms: C_12  and  C_13 
REMARK    6  A    between atoms: C_13  and  C_14 
REMARK    7  A    between atoms: C_13  and  O_19 
ROOT
HETATM    1  C   UNL     1       3.618  -0.844  -1.614  1.00  0.00     0.096 C 
HETATM    2  C   UNL     1       3.539   0.596  -2.164  1.00  0.00     0.056 C 
HETATM    3  C   UNL     1       3.554   0.580  -3.689  1.00  0.00     0.274 C 
HETATM    4  N   UNL     1       4.787   0.004  -4.226  1.00  0.00     0.091 N 
HETATM    5  C   UNL     1       5.151  -1.285  -3.632  1.00  0.00     0.274 C 
HETATM    6  C   UNL     1       5.025  -1.296  -2.102  1.00  0.00     0.056 C 
ENDROOT
BRANCH   1   7
HETATM    7  N   UNL     1       2.438  -1.730  -1.980  1.00  0.00    -0.313 N 
HETATM    8  C   UNL     1       1.069  -1.458  -1.806  1.00  0.00     0.224 C 
HETATM    9  O   UNL     1       0.183  -2.264  -2.127  1.00  0.00    -0.273 OA
BRANCH   8  10
HETATM   10  C   UNL     1       0.580  -0.152  -1.208  1.00  0.00     0.099 C 
HETATM   11  C   UNL     1       0.951   0.060   0.244  1.00  0.00     0.014 C 
ENDBRANCH   8  10
BRANCH   7  12
HETATM   12  C   UNL     1       2.729  -3.067  -2.437  1.00  0.00     0.037 A 
HETATM   13  C   UNL     1       2.215  -3.506  -3.665  1.00  0.00     0.030 A 
HETATM   14  C   UNL     1       2.589  -4.739  -4.201  1.00  0.00     0.002 A 
HETATM   15  C   UNL     1       3.462  -5.562  -3.496  1.00  0.00     0.000 A 
HETATM   16  C   UNL     1       3.927  -5.168  -2.242  1.00  0.00     0.002 A 
HETATM   17  C   UNL     1       3.548  -3.933  -1.707  1.00  0.00     0.030 A 
ENDBRANCH   7  12
ENDBRANCH   1   7
BRANCH   4  18
HETATM   18  C   UNL     1       4.805  -0.051  -5.709  1.00  0.00     0.309 C 
BRANCH  18  19
HETATM   19  C   UNL     1       3.669  -0.786  -6.494  1.00  0.00     0.186 C 
BRANCH  19  20
HETATM   20  C   UNL     1       2.332  -0.082  -6.531  1.00  0.00     0.013 C 
HETATM   21  C   UNL     1       1.087  -0.620  -6.253  1.00  0.00     0.018 C 
HETATM   22  C   UNL     1       0.056   0.362  -6.235  1.00  0.00     0.008 C 
HETATM   23  C   UNL     1       0.529   1.607  -6.579  1.00  0.00     0.050 C 
HETATM   24  S   UNL     1       2.193   1.576  -6.963  1.00  0.00    -0.104 SA
ENDBRANCH  19  20
BRANCH  19  25
HETATM   25  O   UNL     1       4.065  -0.971  -7.857  1.00  0.00    -0.389 OA
HETATM   26  H   UNL     1       3.962  -0.110  -8.298  1.00  0.00     0.210 HD
ENDBRANCH  19  25
ENDBRANCH  18  19
ENDBRANCH   4  18
TORSDOF 7
