REMARK  6 active torsions:
REMARK  status: ('A' for Active; 'I' for Inactive)
REMARK    1  A    between atoms: C_2  and  C_3 
REMARK       I    between atoms: C_3  and  N_5 
REMARK    2  A    between atoms: N_5  and  C_6 
REMARK    3  A    between atoms: N_5  and  C_21 
REMARK    4  A    between atoms: N_9  and  C_12 
REMARK    5  A    between atoms: C_12  and  C_13 
REMARK    6  A    between atoms: C_13  and  C_15 
ROOT
HETATM    1  C   UNL     1       3.708   2.044   0.777  1.00  0.00     0.096 C 
HETATM    2  C   UNL     1       5.103   2.484   0.288  1.00  0.00     0.056 C 
HETATM    3  C   UNL     1       5.256   2.460  -1.244  1.00  0.00     0.274 C 
HETATM    4  N   UNL     1       4.620   1.382  -1.996  1.00  0.00     0.089 N 
HETATM    5  C   UNL     1       3.515   0.677  -1.366  1.00  0.00     0.274 C 
HETATM    6  C   UNL     1       3.593   0.629   0.153  1.00  0.00     0.056 C 
ENDROOT
BRANCH   1   7
HETATM    7  N   UNL     1       2.553   3.009   0.577  1.00  0.00    -0.313 N 
HETATM    8  C   UNL     1       1.188   2.659   0.626  1.00  0.00     0.224 C 
HETATM    9  O   UNL     1       0.302   3.427   0.229  1.00  0.00    -0.273 OA
BRANCH   8  10
HETATM   10  C   UNL     1       0.731   1.336   1.208  1.00  0.00     0.099 C 
HETATM   11  C   UNL     1       0.143   0.419   0.142  1.00  0.00     0.014 C 
ENDBRANCH   8  10
BRANCH   7  12
HETATM   12  C   UNL     1       2.792   4.442   0.795  1.00  0.00     0.037 A 
HETATM   13  C   UNL     1       2.053   5.157   1.753  1.00  0.00     0.030 A 
HETATM   14  C   UNL     1       2.216   6.542   1.928  1.00  0.00     0.002 A 
HETATM   15  C   UNL     1       3.125   7.252   1.152  1.00  0.00     0.000 A 
HETATM   16  C   UNL     1       3.850   6.578   0.186  1.00  0.00     0.002 A 
HETATM   17  C   UNL     1       3.664   5.202   0.009  1.00  0.00     0.030 A 
ENDBRANCH   7  12
ENDBRANCH   1   7
BRANCH   4  18
HETATM   18  C   UNL     1       4.362   1.778  -3.407  1.00  0.00     0.281 C 
BRANCH  18  19
HETATM   19  C   UNL     1       2.965   2.351  -3.814  1.00  0.00     0.043 C 
HETATM   20  C   UNL     1       2.417   3.486  -2.940  1.00  0.00     0.016 C 
BRANCH  19  21
HETATM   21  C   UNL     1       2.938   2.815  -5.266  1.00  0.00    -0.053 A 
HETATM   22  C   UNL     1       2.293   2.030  -6.231  1.00  0.00     0.007 A 
HETATM   23  C   UNL     1       2.137   2.498  -7.536  1.00  0.00     0.001 A 
HETATM   24  C   UNL     1       2.626   3.753  -7.893  1.00  0.00     0.000 A 
HETATM   25  C   UNL     1       3.294   4.532  -6.952  1.00  0.00     0.001 A 
HETATM   26  C   UNL     1       3.462   4.061  -5.651  1.00  0.00     0.007 A 
ENDBRANCH  19  21
ENDBRANCH  18  19
ENDBRANCH   4  18
TORSDOF 6
