REMARK  7 active torsions:
REMARK  status: ('A' for Active; 'I' for Inactive)
REMARK    1  A    between atoms: C_2  and  C_3 
REMARK       I    between atoms: C_3  and  N_5 
REMARK    2  A    between atoms: N_5  and  C_6 
REMARK    3  A    between atoms: N_5  and  C_21 
REMARK    4  A    between atoms: N_9  and  C_12 
REMARK    5  A    between atoms: C_12  and  C_13 
REMARK    6  A    between atoms: C_13  and  C_14 
REMARK    7  A    between atoms: C_13  and  O_20 
ROOT
HETATM    1  C   UNL     1       3.100   1.388  -0.675  1.00  0.00     0.096 C 
HETATM    2  C   UNL     1       4.371   2.241  -0.459  1.00  0.00     0.056 C 
HETATM    3  C   UNL     1       5.615   1.660  -1.137  1.00  0.00     0.274 C 
HETATM    4  N   UNL     1       5.226   1.285  -2.484  1.00  0.00     0.091 N 
HETATM    5  C   UNL     1       4.418   0.070  -2.494  1.00  0.00     0.274 C 
HETATM    6  C   UNL     1       3.378   0.039  -1.366  1.00  0.00     0.056 C 
ENDROOT
BRANCH   1   7
HETATM    7  N   UNL     1       1.912   2.116  -1.210  1.00  0.00    -0.313 N 
HETATM    8  C   UNL     1       0.603   1.999  -0.722  1.00  0.00     0.224 C 
HETATM    9  O   UNL     1      -0.376   2.487  -1.289  1.00  0.00    -0.273 OA
BRANCH   8  10
HETATM   10  C   UNL     1       0.363   1.247   0.576  1.00  0.00     0.099 C 
HETATM   11  C   UNL     1       0.403  -0.261   0.422  1.00  0.00     0.014 C 
ENDBRANCH   8  10
BRANCH   7  12
HETATM   12  C   UNL     1       2.062   2.947  -2.364  1.00  0.00     0.037 A 
HETATM   13  C   UNL     1       1.878   4.332  -2.237  1.00  0.00     0.030 A 
HETATM   14  C   UNL     1       1.903   5.159  -3.362  1.00  0.00     0.002 A 
HETATM   15  C   UNL     1       2.094   4.607  -4.626  1.00  0.00     0.000 A 
HETATM   16  C   UNL     1       2.249   3.229  -4.765  1.00  0.00     0.002 A 
HETATM   17  C   UNL     1       2.224   2.402  -3.638  1.00  0.00     0.030 A 
ENDBRANCH   7  12
ENDBRANCH   1   7
BRANCH   4  18
HETATM   18  C   UNL     1       6.310   1.278  -3.473  1.00  0.00     0.308 C 
BRANCH  18  19
HETATM   19  C   UNL     1       5.930   1.985  -4.814  1.00  0.00     0.179 C 
BRANCH  19  20
HETATM   20  C   UNL     1       5.961   3.514  -4.804  1.00  0.00    -0.028 A 
HETATM   21  C   UNL     1       5.579   4.254  -3.675  1.00  0.00     0.010 A 
HETATM   22  C   UNL     1       5.574   5.650  -3.669  1.00  0.00     0.001 A 
HETATM   23  C   UNL     1       5.938   6.347  -4.812  1.00  0.00     0.000 A 
HETATM   24  C   UNL     1       6.288   5.643  -5.960  1.00  0.00     0.001 A 
HETATM   25  C   UNL     1       6.288   4.243  -5.960  1.00  0.00     0.010 A 
ENDBRANCH  19  20
BRANCH  19  26
HETATM   26  O   UNL     1       6.841   1.487  -5.811  1.00  0.00    -0.389 OA
HETATM   27  H   UNL     1       7.670   1.982  -5.696  1.00  0.00     0.210 HD
ENDBRANCH  19  26
ENDBRANCH  18  19
ENDBRANCH   4  18
TORSDOF 7
