REMARK  3 active torsions:
REMARK  status: ('A' for Active; 'I' for Inactive)
REMARK    1  A    between atoms: C_3  and  C_4 
REMARK    2  A    between atoms: C_16  and  O_17 
REMARK    3  A    between atoms: C_24  and  O_25 
ROOT
HETATM    1  C   UNL     1       0.999   0.620  -2.012  1.00  0.00     0.274 C 
HETATM    2  N   UNL     1      -0.204   1.410  -1.593  1.00  0.00     0.102 N 
HETATM    3  C   UNL     1      -0.558   2.486  -2.547  1.00  0.00     0.265 C 
HETATM    4  C   UNL     1       0.434   2.333  -3.693  1.00  0.00     0.029 C 
HETATM    5  C   UNL     1       0.071   2.910  -5.069  1.00  0.00     0.021 C 
HETATM    6  C   UNL     1       1.595   3.234  -3.201  1.00  0.00     0.032 C 
HETATM    7  C   UNL     1       2.443   2.516  -2.117  1.00  0.00     0.023 C 
HETATM    8  C   UNL     1       3.211   1.730  -3.328  1.00  0.00    -0.015 C 
HETATM    9  C   UNL     1       2.427   0.804  -3.979  1.00  0.00     0.011 C 
HETATM   10  C   UNL     1       0.969   0.856  -3.576  1.00  0.00     0.119 C 
HETATM   11  C   UNL     1       2.648   3.574  -0.983  1.00  0.00     0.240 C 
HETATM   12  C   UNL     1       1.764   3.431   0.345  1.00  0.00     0.076 C 
HETATM   13  C   UNL     1       1.891   2.112   1.055  1.00  0.00    -0.049 C 
HETATM   14  C   UNL     1       2.101   1.961   2.435  1.00  0.00     0.010 C 
HETATM   15  C   UNL     1       2.484   0.720   2.971  1.00  0.00     0.037 C 
HETATM   16  C   UNL     1       2.546  -0.396   2.150  1.00  0.00     0.066 C 
HETATM   17  C   UNL     1       2.178  -0.296   0.815  1.00  0.00     0.045 C 
HETATM   18  C   UNL     1       1.959   0.992   0.244  1.00  0.00    -0.037 C 
HETATM   19  C   UNL     1       2.256   1.218  -1.259  1.00  0.00     0.036 C 
HETATM   20  C   UNL     1       3.893   0.963  -1.010  1.00  0.00     0.048 C 
HETATM   21  C   UNL     1       4.627   2.285  -0.415  1.00  0.00     0.273 C 
HETATM   22  N   UNL     1       4.031   3.621  -0.588  1.00  0.00     0.090 N 
HETATM   23  C   UNL     1       4.728   4.613  -1.384  1.00  0.00     0.310 C 
HETATM   24  H   UNL     1      -0.185   1.762  -0.639  1.00  0.00     0.317 HD
ENDROOT
BRANCH   3  25
HETATM   25  C   UNL     1      -2.079   2.577  -2.584  1.00  0.00    -0.025 C 
HETATM   26  C   UNL     1      -2.596   3.653  -1.826  1.00  0.00     0.009 C 
HETATM   27  C   UNL     1      -3.420   3.370  -0.744  1.00  0.00     0.001 C 
HETATM   28  C   UNL     1      -3.850   2.062  -0.538  1.00  0.00     0.000 C 
HETATM   29  C   UNL     1      -3.582   1.078  -1.493  1.00  0.00     0.001 C 
HETATM   30  C   UNL     1      -2.759   1.355  -2.582  1.00  0.00     0.009 C 
ENDBRANCH   3  25
BRANCH  10  31
HETATM   31  O   UNL     1       0.175  -0.178  -4.166  1.00  0.00    -0.378 OA
HETATM   32  C   UNL     1      -0.245  -0.026  -5.511  1.00  0.00     0.203 C 
ENDBRANCH  10  31
BRANCH  16  33
HETATM   33  O   UNL     1       3.102  -1.538   2.654  1.00  0.00    -0.361 OA
HETATM   34  H   UNL     1       3.446  -2.069   1.915  1.00  0.00     0.217 HD
ENDBRANCH  16  33
TORSDOF 3
