REMARK  2 active torsions:
REMARK  status: ('A' for Active; 'I' for Inactive)
REMARK    1  A    between atoms: C_12  and  O_15 
REMARK    2  A    between atoms: C_19  and  O_22 
ROOT
HETATM    1  C   UNL     1       4.329  -0.666   0.077  1.00  0.00     0.310 C 
HETATM    2  N   UNL     1       2.919  -0.984   0.277  1.00  0.00     0.089 N 
HETATM    3  C   UNL     1       2.412  -0.431   1.537  1.00  0.00     0.273 C 
HETATM    4  C   UNL     1       0.957  -0.851   1.797  1.00  0.00     0.048 C 
HETATM    5  C   UNL     1       0.052  -0.690   0.559  1.00  0.00     0.030 C 
HETATM    6  C   UNL     1       0.703  -1.362  -0.663  1.00  0.00     0.057 C 
HETATM    7  C   UNL     1       2.068  -0.641  -0.893  1.00  0.00     0.235 C 
HETATM    8  C   UNL     1       1.904   0.894  -1.175  1.00  0.00     0.075 C 
HETATM    9  C   UNL     1       0.717   1.541  -0.506  1.00  0.00    -0.046 A 
HETATM   10  C   UNL     1      -0.150   0.757   0.240  1.00  0.00    -0.003 A 
HETATM   11  C   UNL     1      -1.392   1.201   0.658  1.00  0.00     0.110 A 
HETATM   12  C   UNL     1      -1.770   2.518   0.465  1.00  0.00     0.102 A 
HETATM   13  C   UNL     1      -0.861   3.357  -0.202  1.00  0.00     0.040 A 
HETATM   14  C   UNL     1       0.363   2.873  -0.703  1.00  0.00     0.011 A 
HETATM   15  O   UNL     1      -2.146   0.179   1.177  1.00  0.00    -0.338 OA
HETATM   16  C   UNL     1      -1.415  -1.058   0.855  1.00  0.00     0.175 C 
HETATM   17  C   UNL     1      -2.125  -1.817  -0.300  1.00  0.00     0.171 C 
HETATM   18  C   UNL     1      -1.552  -1.583  -1.668  1.00  0.00     0.004 C 
HETATM   19  C   UNL     1      -0.236  -1.387  -1.851  1.00  0.00    -0.020 C 
ENDROOT
BRANCH  12  20
HETATM   20  O   UNL     1      -2.942   3.125   0.811  1.00  0.00    -0.353 OA
HETATM   21  C   UNL     1      -3.938   2.319   1.423  1.00  0.00     0.210 C 
ENDBRANCH  12  20
BRANCH  17  22
HETATM   22  O   UNL     1      -3.519  -1.525  -0.333  1.00  0.00    -0.389 OA
HETATM   23  H   UNL     1      -3.599  -0.597  -0.042  1.00  0.00     0.210 HD
ENDBRANCH  17  22
TORSDOF 2
