REMARK  6 active torsions:
REMARK  status: ('A' for Active; 'I' for Inactive)
REMARK    1  A    between atoms: C_2  and  C_3 
REMARK    2  A    between atoms: C_12  and  C_13 
REMARK    3  A    between atoms: C_13  and  C_17 
REMARK    4  A    between atoms: C_14  and  O_15 
REMARK    5  A    between atoms: C_17  and  O_19 
REMARK    6  A    between atoms: C_24  and  O_28 
ROOT
HETATM    1  C   UNL     1       0.929  -2.136  -1.527  1.00  0.00     0.022 C 
HETATM    2  C   UNL     1       0.423  -3.288  -0.636  1.00  0.00     0.278 C 
HETATM    3  N   UNL     1      -0.854  -3.908  -1.006  1.00  0.00     0.099 N 
HETATM    4  C   UNL     1      -0.975  -5.267  -0.407  1.00  0.00     0.278 C 
HETATM    5  C   UNL     1      -0.248  -6.408  -1.179  1.00  0.00     0.072 C 
HETATM    6  C   UNL     1      -0.624  -6.336  -2.616  1.00  0.00    -0.016 A 
HETATM    7  C   UNL     1      -1.120  -5.160  -3.133  1.00  0.00     0.050 A 
HETATM    8  C   UNL     1      -1.296  -3.858  -2.415  1.00  0.00     0.273 C 
HETATM    9  C   UNL     1      -0.718  -2.689  -3.223  1.00  0.00     0.052 C 
HETATM   10  C   UNL     1       0.803  -2.480  -3.047  1.00  0.00     0.035 C 
HETATM   11  N   UNL     1      -1.513  -5.408  -4.419  1.00  0.00    -0.357 N 
HETATM   12  C   UNL     1      -1.151  -6.682  -4.788  1.00  0.00     0.046 A 
HETATM   13  C   UNL     1      -0.572  -7.296  -3.672  1.00  0.00     0.032 A 
HETATM   14  C   UNL     1      -0.102  -8.627  -3.792  1.00  0.00     0.081 A 
HETATM   15  C   UNL     1      -0.230  -9.264  -5.041  1.00  0.00     0.038 A 
HETATM   16  C   UNL     1      -0.820  -8.623  -6.131  1.00  0.00     0.005 A 
HETATM   17  C   UNL     1      -1.297  -7.319  -6.024  1.00  0.00     0.030 A 
HETATM   18  H   UNL     1      -1.960  -4.746  -5.036  1.00  0.00     0.166 HD
ENDROOT
BRANCH  10  19
HETATM   19  C   UNL     1       1.703  -3.562  -3.659  1.00  0.00     0.043 C 
HETATM   20  C   UNL     1       1.722  -4.153  -4.877  1.00  0.00     0.147 C 
BRANCH  20  21
HETATM   21  O   UNL     1       1.070  -3.993  -6.057  1.00  0.00    -0.367 OA
HETATM   22  C   UNL     1       0.376  -2.809  -6.387  1.00  0.00     0.208 C 
ENDBRANCH  20  21
BRANCH  19  23
HETATM   23  C   UNL     1       2.819  -4.147  -2.856  1.00  0.00     0.291 C 
HETATM   24  O   UNL     1       2.691  -4.873  -1.887  1.00  0.00    -0.260 OA
BRANCH  23  25
HETATM   25  O   UNL     1       4.008  -3.746  -3.386  1.00  0.00    -0.323 OA
HETATM   26  C   UNL     1       5.181  -4.275  -2.758  1.00  0.00     0.213 C 
ENDBRANCH  23  25
ENDBRANCH  19  23
ENDBRANCH  10  19
BRANCH   1  27
HETATM   27  C   UNL     1       2.295  -1.520  -1.145  1.00  0.00     0.002 C 
HETATM   28  C   UNL     1       2.641  -1.570   0.336  1.00  0.00     0.005 C 
ENDBRANCH   1  27
BRANCH  14  29
HETATM   29  O   UNL     1       0.470  -9.195  -2.684  1.00  0.00    -0.355 OA
HETATM   30  C   UNL     1       0.793 -10.576  -2.763  1.00  0.00     0.210 C 
ENDBRANCH  14  29
TORSDOF 6
