REMARK  2 active torsions:
REMARK  status: ('A' for Active; 'I' for Inactive)
REMARK    1  A    between atoms: C_12  and  O_15 
REMARK    2  A    between atoms: C_18  and  O_21 
ROOT
HETATM    1  C   UNL     1       1.302  -0.678  -0.509  1.00  0.00     0.143 C 
HETATM    2  N   UNL     1       0.585  -0.629   0.744  1.00  0.00    -0.411 N 
HETATM    3  C   UNL     1       1.399  -0.662   1.953  1.00  0.00     0.118 C 
HETATM    4  C   UNL     1       0.888  -1.562   3.089  1.00  0.00     0.037 C 
HETATM    5  C   UNL     1      -0.660  -1.656   3.179  1.00  0.00     0.030 C 
HETATM    6  C   UNL     1      -1.405  -0.839   2.141  1.00  0.00     0.046 C 
HETATM    7  C   UNL     1      -0.743  -1.240   0.792  1.00  0.00     0.091 C 
HETATM    8  C   UNL     1      -0.786  -2.833   0.557  1.00  0.00     0.065 C 
HETATM    9  C   UNL     1      -1.085  -3.688   1.777  1.00  0.00    -0.046 A 
HETATM   10  C   UNL     1      -0.998  -3.075   3.006  1.00  0.00    -0.003 A 
HETATM   11  C   UNL     1      -1.243  -3.653   4.240  1.00  0.00     0.110 A 
HETATM   12  C   UNL     1      -1.605  -4.972   4.281  1.00  0.00     0.099 A 
HETATM   13  C   UNL     1      -1.702  -5.669   3.065  1.00  0.00     0.040 A 
HETATM   14  C   UNL     1      -1.438  -5.033   1.817  1.00  0.00     0.011 A 
HETATM   15  O   UNL     1      -1.141  -2.726   5.275  1.00  0.00    -0.338 OA
HETATM   16  C   UNL     1      -1.376  -1.506   4.518  1.00  0.00     0.175 C 
HETATM   17  C   UNL     1      -1.099  -0.111   5.092  1.00  0.00     0.171 C 
HETATM   18  C   UNL     1      -1.248   0.913   3.965  1.00  0.00     0.004 C 
HETATM   19  C   UNL     1      -1.410   0.603   2.652  1.00  0.00    -0.020 C 
ENDROOT
BRANCH  12  20
HETATM   20  O   UNL     1      -1.920  -5.595   5.446  1.00  0.00    -0.358 OA
HETATM   21  H   UNL     1      -1.837  -4.921   6.145  1.00  0.00     0.217 HD
ENDBRANCH  12  20
BRANCH  17  22
HETATM   22  O   UNL     1       0.201   0.028   5.643  1.00  0.00    -0.389 OA
HETATM   23  H   UNL     1       0.370  -0.774   6.170  1.00  0.00     0.210 HD
ENDBRANCH  17  22
TORSDOF 2
