REMARK  2 active torsions:
REMARK  status: ('A' for Active; 'I' for Inactive)
REMARK    1  A    between atoms: C_7  and  O_21 
REMARK    2  A    between atoms: C_16  and  O_19 
ROOT
HETATM    1  C   UNL     1       1.066  -0.713   0.377  1.00  0.00     0.310 C 
HETATM    2  N   UNL     1      -0.051  -0.901  -0.551  1.00  0.00     0.093 N 
HETATM    3  C   UNL     1      -1.134   0.061  -0.246  1.00  0.00     0.274 C 
HETATM    4  C   UNL     1      -2.282   0.072  -1.285  1.00  0.00     0.052 C 
HETATM    5  C   UNL     1      -1.725  -0.022  -2.721  1.00  0.00     0.050 C 
HETATM    6  C   UNL     1      -2.402   0.730  -3.870  1.00  0.00     0.203 C 
HETATM    7  C   UNL     1      -2.177   2.198  -3.633  1.00  0.00     0.076 C 
HETATM    8  C   UNL     1      -0.908   2.548  -3.319  1.00  0.00     0.035 C 
HETATM    9  C   UNL     1       0.125   1.525  -3.022  1.00  0.00     0.009 C 
HETATM   10  C   UNL     1      -0.270   0.277  -2.674  1.00  0.00    -0.030 C 
HETATM   11  C   UNL     1       0.430  -0.866  -1.971  1.00  0.00     0.257 C 
HETATM   12  C   UNL     1       0.125  -2.294  -2.612  1.00  0.00     0.079 C 
HETATM   13  C   UNL     1      -1.244  -2.454  -3.241  1.00  0.00    -0.045 A 
HETATM   14  C   UNL     1      -2.051  -1.341  -3.291  1.00  0.00     0.001 A 
HETATM   15  C   UNL     1      -3.230  -1.240  -4.023  1.00  0.00     0.111 A 
HETATM   16  C   UNL     1      -3.703  -2.338  -4.692  1.00  0.00     0.099 A 
HETATM   17  C   UNL     1      -2.962  -3.524  -4.614  1.00  0.00     0.040 A 
HETATM   18  C   UNL     1      -1.730  -3.581  -3.903  1.00  0.00     0.011 A 
HETATM   19  O   UNL     1      -3.678   0.083  -4.097  1.00  0.00    -0.334 OA
ENDROOT
BRANCH   7  20
HETATM   20  O   UNL     1      -3.185   3.106  -3.859  1.00  0.00    -0.357 OA
HETATM   21  C   UNL     1      -4.171   3.038  -2.829  1.00  0.00     0.209 C 
ENDBRANCH   7  20
BRANCH  16  22
HETATM   22  O   UNL     1      -4.809  -2.277  -5.478  1.00  0.00    -0.358 OA
HETATM   23  H   UNL     1      -5.103  -1.347  -5.458  1.00  0.00     0.217 HD
ENDBRANCH  16  22
TORSDOF 2
