REMARK  5 active torsions:
REMARK  status: ('A' for Active; 'I' for Inactive)
REMARK    1  A    between atoms: C_11  and  C_22 
REMARK    2  A    between atoms: C_12  and  O_21 
REMARK    3  A    between atoms: C_17  and  O_20 
REMARK    4  A    between atoms: C_23  and  O_42 
REMARK    5  A    between atoms: C_38  and  O_41 
ROOT
HETATM    1  C   UNL     1       1.103  -0.605  -0.417  1.00  0.00     0.310 C 
HETATM    2  N   UNL     1       0.969  -1.674   0.576  1.00  0.00     0.089 N 
HETATM    3  C   UNL     1       1.537  -1.250   1.860  1.00  0.00     0.273 C 
HETATM    4  C   UNL     1       1.186  -2.195   3.017  1.00  0.00     0.048 C 
HETATM    5  C   UNL     1      -0.325  -2.549   3.047  1.00  0.00     0.030 C 
HETATM    6  C   UNL     1      -1.146  -1.823   1.994  1.00  0.00     0.057 C 
HETATM    7  C   UNL     1      -0.431  -2.168   0.653  1.00  0.00     0.235 C 
HETATM    8  C   UNL     1      -0.443  -3.760   0.411  1.00  0.00     0.075 C 
HETATM    9  C   UNL     1      -0.543  -4.628   1.654  1.00  0.00    -0.045 A 
HETATM   10  C   UNL     1      -0.853  -5.990   1.706  1.00  0.00     0.023 A 
HETATM   11  C   UNL     1      -1.110  -6.661   2.954  1.00  0.00     0.013 A 
HETATM   12  C   UNL     1      -0.964  -5.938   4.168  1.00  0.00     0.111 A 
HETATM   13  C   UNL     1      -0.646  -4.600   4.107  1.00  0.00     0.111 A 
HETATM   14  C   UNL     1      -0.456  -4.002   2.874  1.00  0.00    -0.003 A 
HETATM   15  O   UNL     1      -0.654  -3.656   5.137  1.00  0.00    -0.338 OA
HETATM   16  C   UNL     1      -1.067  -2.478   4.380  1.00  0.00     0.175 C 
HETATM   17  C   UNL     1      -0.912  -1.049   4.926  1.00  0.00     0.171 C 
HETATM   18  C   UNL     1      -1.221  -0.054   3.797  1.00  0.00     0.004 C 
HETATM   19  C   UNL     1      -1.343  -0.391   2.488  1.00  0.00    -0.020 C 
ENDROOT
BRANCH  11  20
HETATM   20  C   UNL     1      -1.749  -8.004   2.936  1.00  0.00     0.013 A 
HETATM   21  C   UNL     1      -3.065  -8.133   2.412  1.00  0.00     0.111 A 
HETATM   22  C   UNL     1      -3.709  -9.338   2.520  1.00  0.00     0.111 A 
HETATM   23  C   UNL     1      -3.059 -10.399   3.116  1.00  0.00    -0.003 A 
HETATM   24  O   UNL     1      -5.031  -9.646   2.207  1.00  0.00    -0.338 OA
HETATM   25  C   UNL     1      -1.788 -10.383   3.638  1.00  0.00    -0.045 A 
HETATM   26  C   UNL     1      -3.979 -11.541   3.201  1.00  0.00     0.030 C 
HETATM   27  C   UNL     1      -1.121  -9.152   3.538  1.00  0.00     0.023 A 
HETATM   28  C   UNL     1      -1.316 -11.658   4.325  1.00  0.00     0.065 C 
HETATM   29  C   UNL     1      -2.422 -12.827   4.530  1.00  0.00     0.091 C 
HETATM   30  C   UNL     1      -3.852 -12.208   4.559  1.00  0.00     0.046 C 
HETATM   31  N   UNL     1      -2.392 -13.954   3.583  1.00  0.00    -0.411 N 
HETATM   32  C   UNL     1      -5.114 -13.051   4.751  1.00  0.00    -0.020 C 
HETATM   33  C   UNL     1      -6.255 -12.825   4.057  1.00  0.00     0.004 C 
HETATM   34  C   UNL     1      -6.444 -11.689   3.041  1.00  0.00     0.171 C 
HETATM   35  C   UNL     1      -5.262 -10.715   3.169  1.00  0.00     0.175 C 
HETATM   36  C   UNL     1      -3.253 -13.881   2.409  1.00  0.00     0.118 C 
HETATM   37  C   UNL     1      -1.121 -14.612   3.364  1.00  0.00     0.143 C 
HETATM   38  C   UNL     1      -3.664 -12.466   1.993  1.00  0.00     0.037 C 
BRANCH  21  39
HETATM   39  O   UNL     1      -3.739  -7.066   1.887  1.00  0.00    -0.357 OA
HETATM   40  H   UNL     1      -4.648  -7.380   1.722  1.00  0.00     0.217 HD
ENDBRANCH  21  39
BRANCH  34  41
HETATM   41  O   UNL     1      -7.676 -11.024   3.310  1.00  0.00    -0.389 OA
HETATM   42  H   UNL     1      -7.890 -11.144   4.250  1.00  0.00     0.210 HD
ENDBRANCH  34  41
ENDBRANCH  11  20
BRANCH  12  43
HETATM   43  O   UNL     1      -1.259  -6.503   5.377  1.00  0.00    -0.357 OA
HETATM   44  H   UNL     1      -1.231  -5.773   6.023  1.00  0.00     0.217 HD
ENDBRANCH  12  43
BRANCH  17  45
HETATM   45  O   UNL     1      -1.845  -0.820   5.977  1.00  0.00    -0.389 OA
HETATM   46  H   UNL     1      -1.609   0.028   6.388  1.00  0.00     0.210 HD
ENDBRANCH  17  45
TORSDOF 5
