REMARK  2 active torsions:
REMARK  status: ('A' for Active; 'I' for Inactive)
REMARK    1  A    between atoms: C_7  and  O_22 
REMARK    2  A    between atoms: C_16  and  O_19 
ROOT
HETATM    1  C   UNL     1       1.136  -1.148  -0.233  1.00  0.00     0.143 C 
HETATM    2  N   UNL     1       0.349  -0.305   0.639  1.00  0.00    -0.408 N 
HETATM    3  C   UNL     1       0.921  -0.049   1.964  1.00  0.00     0.118 C 
HETATM    4  C   UNL     1      -0.032   0.123   3.182  1.00  0.00     0.041 C 
HETATM    5  C   UNL     1      -1.506   0.337   2.787  1.00  0.00     0.050 C 
HETATM    6  C   UNL     1      -2.445   1.187   3.645  1.00  0.00     0.203 C 
HETATM    7  C   UNL     1      -1.984   2.613   3.545  1.00  0.00     0.076 C 
HETATM    8  C   UNL     1      -1.741   3.051   2.287  1.00  0.00     0.035 C 
HETATM    9  C   UNL     1      -1.728   2.110   1.141  1.00  0.00     0.008 C 
HETATM   10  C   UNL     1      -1.565   0.787   1.376  1.00  0.00    -0.041 C 
HETATM   11  C   UNL     1      -1.112  -0.344   0.486  1.00  0.00     0.113 C 
HETATM   12  C   UNL     1      -1.758  -1.773   0.803  1.00  0.00     0.068 C 
HETATM   13  C   UNL     1      -2.380  -1.945   2.170  1.00  0.00    -0.045 A 
HETATM   14  C   UNL     1      -2.254  -0.905   3.058  1.00  0.00     0.001 A 
HETATM   15  C   UNL     1      -2.896  -0.806   4.295  1.00  0.00     0.111 A 
HETATM   16  C   UNL     1      -3.707  -1.834   4.716  1.00  0.00     0.102 A 
HETATM   17  C   UNL     1      -3.786  -2.967   3.882  1.00  0.00     0.040 A 
HETATM   18  C   UNL     1      -3.142  -3.021   2.616  1.00  0.00     0.011 A 
HETATM   19  O   UNL     1      -2.683   0.454   4.863  1.00  0.00    -0.334 OA
ENDROOT
BRANCH   7  20
HETATM   20  O   UNL     1      -1.948   3.422   4.655  1.00  0.00    -0.357 OA
HETATM   21  C   UNL     1      -0.851   3.074   5.500  1.00  0.00     0.209 C 
ENDBRANCH   7  20
BRANCH  16  22
HETATM   22  O   UNL     1      -4.485  -1.846   5.836  1.00  0.00    -0.353 OA
HETATM   23  C   UNL     1      -5.098  -0.589   6.126  1.00  0.00     0.210 C 
ENDBRANCH  16  22
TORSDOF 2
